version 2
run General-0-20210310-18:35:56-12176
attr configname General
attr datetime 20210310-18:35:56
attr experiment General
attr inifile omnetpp.ini
attr iterationvars ""
attr iterationvarsf ""
attr measurement ""
attr network EarthquakeDetector
attr processid 12176
attr repetition 0
attr replication #0
attr resultdir results
attr runnumber 0
attr seedset 0
param *.configurator.config "xmldoc(\"netconfig.xml\")"
param *.configurator.optimizeRoutes false
param *.configurator.addStaticRoutes false
param *.radioMedium.typename "\"ApskScalarRadioMedium\""
param *.radioMedium.backgroundNoise.power -90dBm
param *.radioMedium.mediumLimitCache.centerFrequency 2GHz
param *.radioMedium.pathLoss.typename "\"TwoRayGroundReflection\""
param *.host*.typename "\"AodvRouter\""
param *.host*.ipv4.arp.typename "\"GlobalArp\""
param *.hostM.numApps 1
param *.hostM.app[0].typename "\"UdpBasicApp\""
param *.hostM.app[0].destAddresses "\"hostS1 hostS2 hostS3 hostS4 hostS5\""
param *.hostM.app[0].destPort 5000
param *.hostM.app[0].messageLength 1000B
param *.hostM.app[0].sendInterval exponential(12ms)
param *.hostM.app[0].packetName "\"UDPData\""
param *.hostS*.numApps 1
param *.hostS*.app[0].typename "\"UdpSink\""
param *.hostS*.app[0].localPort 5000
param *.host*.wlan[0].typename "\"WirelessInterface\""
param *.host*.wlan[0].mac.useAck false
param *.host*.wlan[0].mac.headerLength 23B
param *.host*.wlan[0].mac.typename "\"CsmaCaMac\""
param *.host*.wlan[0].mac.ackTimeout 300us
param *.host*.wlan[0].radio.typename "\"ApskScalarRadio\""
param *.host*.wlan[0].radio.antenna.typename "\"ConstantGainAntenna\""
param *.host*.wlan[0].radio.antenna.gain 3dB
param *.host*.wlan[0].radio.centerFrequency 2GHz
param *.host*.wlan[0].radio.bandwidth 2MHz
param *.host*.wlan[0].radio.transmitter.power 1.4mW
param *.host*.wlan[0].radio.transmitter.preambleDuration 10us
param *.host*.wlan[0].radio.transmitter.headerLength 8B
param *.host*.wlan[0].radio.receiver.sensitivity -85dBm
param *.host*.wlan[0].radio.receiver.energyDetection -85dBm
param *.host*.wlan[0].radio.receiver.snirThreshold 4dB
param *.hostM.wlan[0].radio.displayInterferenceRange false
param *.hostM.wlan[0].radio.displayCommunicationRange true
param *.hostS1.wlan[0].radio.displayCommunicationRange false
param *.hostS2.wlan[0].radio.displayCommunicationRange false
param *.host*.**.bitrate 1Mbps
param *.host*.forwarding true
param *.host*.ipv4.routingTable.netmaskRoutes "\"\""
param *.visualizer.sceneVisualizer.descriptionFigure "\"title\""
param *.visualizer.mediumVisualizer.displaySignals false
param *.visualizer.physicalLinkVisualizer.displayLinks true
param *.visualizer.physicalLinkVisualizer.packetFilter "\"UDPData*\""
param *.visualizer.dataLinkVisualizer.displayLinks true
param *.visualizer.dataLinkVisualizer.packetFilter "\"AODV\""
param *.visualizer.*LinkVisualizer.lineShift 0
param *.visualizer.networkRouteVisualizer.displayRoutes true
param *.visualizer.networkRouteVisualizer.lineShift 0
param *.visualizer.networkRouteVisualizer.packetFilter "\"UDPData*\""
param *.host*.wlan[0].radio.energyConsumer.typename "\"StateBasedEpEnergyConsumer\""
param *.host*.wlan[0].radio.energyConsumer.offPowerConsumption 0mW
param *.host*.wlan[0].radio.energyConsumer.sleepPowerConsumption 1mW
param *.host*.wlan[0].radio.energyConsumer.switchingPowerConsumption 1mW
param *.host*.wlan[0].radio.energyConsumer.receiverIdlePowerConsumption 2mW
param *.host*.wlan[0].radio.energyConsumer.receiverBusyPowerConsumption 5mW
param *.host*.wlan[0].radio.energyConsumer.receiverReceivingPowerConsumption 10mW
param *.host*.wlan[0].radio.energyConsumer.transmitterIdlePowerConsumption 2mW
param *.host*.wlan[0].radio.energyConsumer.transmitterTransmittingPowerConsumption 100mW
param *.host*.energyStorage.typename "\"IdealEpEnergyStorage\""
param *.host*.mobility.initialZ 1.7m
param *.host*.wlan[0].mac.queue.packetCapacity 10
param *.visualizer.mobilityVisualizer.displayVelocities true
param *.visualizer.mobilityVisualizer.displayMovementTrails true
param *.physicalEnvironment.config "xmldoc(\"walls.xml\")"
param *.radioMedium.obstacleLoss.typename "\"IdealObstacleLoss\""
param *.physicalEnvironment.ground.typename "\"FlatGround\""
param *.physicalEnvironment.ground.elevation 0m

scalar EarthquakeDetector.radioMedium.propagation "Arrival computation count" 8470
scalar EarthquakeDetector.radioMedium "transmission count" 1694
scalar EarthquakeDetector.radioMedium "signal send count" 8470
scalar EarthquakeDetector.radioMedium "reception computation count" 8470
scalar EarthquakeDetector.radioMedium "interference computation count" 26951
scalar EarthquakeDetector.radioMedium "reception decision computation count" 6937
scalar EarthquakeDetector.radioMedium "listening decision computation count" 11577
scalar EarthquakeDetector.radioMedium "reception cache hit" 84.58991339786
attr unit %
scalar EarthquakeDetector.radioMedium "interference cache hit" 66.666666666667
attr unit %
scalar EarthquakeDetector.radioMedium "noise cache hit" 0
attr unit %
scalar EarthquakeDetector.radioMedium "snir cache hit" 50
attr unit %
scalar EarthquakeDetector.radioMedium "reception decision cache hit" 50
attr unit %
scalar EarthquakeDetector.radioMedium "reception result cache hit" 0
attr unit %
scalar EarthquakeDetector.hostM.energyStorage residualEnergyCapacity:last -1.2471524529869
attr interpolationmode linear
attr source residualEnergyCapacityChanged
attr title "Residual energy capacity, last"
scalar EarthquakeDetector.hostM.lo[0].lo rcvdPkFromHl:count 0
attr interpolationmode none
attr source packetReceivedFromUpper
attr title "packets received from higher layer, count"
scalar EarthquakeDetector.hostM.lo[0].lo rcvdPkFromHl:sum(packetBytes) 0
attr interpolationmode none
attr source packetReceivedFromUpper
attr title "packets received from higher layer, sum(packetBytes)"
scalar EarthquakeDetector.hostM.lo[0].lo passedUpPk:count 0
attr interpolationmode none
attr source packetSentToUpper
attr title "packets passed to higher layer, count"
scalar EarthquakeDetector.hostM.lo[0].lo passedUpPk:sum(packetBytes) 0
attr interpolationmode none
attr source packetSentToUpper
attr title "packets passed to higher layer, sum(packetBytes)"
scalar EarthquakeDetector.hostM.wlan[0].mac.queue packetPopped:count 1439
attr interpolationmode none
attr title "packet popped, count"
scalar EarthquakeDetector.hostM.wlan[0].mac.queue packetPopped:sum(packetBytes) 1515217
attr interpolationmode none
attr title "packet popped, sum(packetBytes)"
statistic EarthquakeDetector.hostM.wlan[0].mac.queue queueingTime:histogram
field count 1439
field mean 0.028008554220671
field stddev 0.026821291578646
field min 0
field max 0.103289991377
field sum 40.304309523546
field sqrsum 2.1633362972564
attr interpolationmode none
attr source queueingTime(packetPopped)
attr title "queueing times, histogram"
attr unit s
bin	-inf	0
bin	0	263
bin	0.002	68
bin	0.004	45
bin	0.006	79
bin	0.008	56
bin	0.01	45
bin	0.012	38
bin	0.014	40
bin	0.016	33
bin	0.018	40
bin	0.02	34
bin	0.022	31
bin	0.024	33
bin	0.026	44
bin	0.028	38
bin	0.03	32
bin	0.032	31
bin	0.034	23
bin	0.036	28
bin	0.038	26
bin	0.04	32
bin	0.042	23
bin	0.044	25
bin	0.046	22
bin	0.048	17
bin	0.05	17
bin	0.052	17
bin	0.054	15
bin	0.056	16
bin	0.058	16
bin	0.06	12
bin	0.062	7
bin	0.064	10
bin	0.066	16
bin	0.068	13
bin	0.07	11
bin	0.072	12
bin	0.074	12
bin	0.076	7
bin	0.078	14
bin	0.08	10
bin	0.082	11
bin	0.084	12
bin	0.086	12
bin	0.088	16
bin	0.09	12
bin	0.092	9
bin	0.094	5
bin	0.096	7
bin	0.098	2
bin	0.1	0
bin	0.102	2
bin	0.104	0
bin	0.106	0
bin	0.108	0
bin	0.11	0
bin	0.112	0
bin	0.114	0
bin	0.116	0
bin	0.118	0
bin	0.12	0
bin	0.122	0
scalar EarthquakeDetector.hostM.wlan[0].mac.queue queueLength:max 11
attr interpolationmode sample-hold
attr source "count(packetPushed) - count(packetPopped) - count(packetRemoved) - count(packetDropped)"
attr title "queue length, max"
scalar EarthquakeDetector.hostM.wlan[0].mac.queue queueLength:timeavg 2.3635541634941
attr interpolationmode sample-hold
attr source "count(packetPushed) - count(packetPopped) - count(packetRemoved) - count(packetDropped)"
attr title "queue length, timeavg"
scalar EarthquakeDetector.hostM.wlan[0].mac.queue packetPushed:count 1456
attr interpolationmode none
attr title "packet pushed, count"
scalar EarthquakeDetector.hostM.wlan[0].mac.queue packetPushed:sum(packetBytes) 1533152
attr interpolationmode none
attr title "packet pushed, sum(packetBytes)"
scalar EarthquakeDetector.hostM.wlan[0].mac.queue packetDropQueueOverflow:count 15
attr interpolationmode none
attr source packetDropReasonIsQueueOverflow(packetDropped)
attr title "packet drops: queue overflow, count"
scalar EarthquakeDetector.hostM.wlan[0].mac.queue packetDropQueueOverflow:sum(packetBytes) 15825
attr interpolationmode none
attr source packetDropReasonIsQueueOverflow(packetDropped)
attr title "packet drops: queue overflow, sum(packetBytes)"
scalar EarthquakeDetector.hostM.wlan[0].mac.queue packetRemoved:count 0
attr interpolationmode none
attr title "packets removed, count"
scalar EarthquakeDetector.hostM.wlan[0].mac.queue packetRemoved:sum(packetBytes) 0
attr interpolationmode none
attr title "packets removed, sum(packetBytes)"
scalar EarthquakeDetector.hostM.wlan[0].mac numRetry 0
scalar EarthquakeDetector.hostM.wlan[0].mac numSentWithoutRetry 0
scalar EarthquakeDetector.hostM.wlan[0].mac numGivenUp 0
scalar EarthquakeDetector.hostM.wlan[0].mac numCollision 0
scalar EarthquakeDetector.hostM.wlan[0].mac numSent 1435
scalar EarthquakeDetector.hostM.wlan[0].mac numReceived 2
scalar EarthquakeDetector.hostM.wlan[0].mac numSentBroadcast 3
scalar EarthquakeDetector.hostM.wlan[0].mac numReceivedBroadcast 10
scalar EarthquakeDetector.hostM.wlan[0].mac packetDropIncorrectlyReceived:count 0
attr interpolationmode none
attr source packetDropReasonIsIncorrectlyReceived(packetDropped)
attr title "packet drop: incorrectly received, count"
scalar EarthquakeDetector.hostM.wlan[0].mac packetDropIncorrectlyReceived:sum(packetBytes) 0
attr interpolationmode none
attr source packetDropReasonIsIncorrectlyReceived(packetDropped)
attr title "packet drop: incorrectly received, sum(packetBytes)"
scalar EarthquakeDetector.hostM.wlan[0].mac packetDropNotAddressedToUs:count 226
attr interpolationmode none
attr source packetDropReasonIsNotAddressedToUs(packetDropped)
attr title "packet drop: not addressed to us, count"
scalar EarthquakeDetector.hostM.wlan[0].mac packetDropNotAddressedToUs:sum(packetBytes) 238430
attr interpolationmode none
attr source packetDropReasonIsNotAddressedToUs(packetDropped)
attr title "packet drop: not addressed to us, sum(packetBytes)"
scalar EarthquakeDetector.hostM.wlan[0].mac packetDropQueueOverflow:count 15
attr interpolationmode none
attr source packetDropReasonIsQueueOverflow(packetDropped)
attr title "packet drop: queue overflow, count"
scalar EarthquakeDetector.hostM.wlan[0].mac packetDropQueueOverflow:sum(packetBytes) 15825
attr interpolationmode none
attr source packetDropReasonIsQueueOverflow(packetDropped)
attr title "packet drop: queue overflow, sum(packetBytes)"
scalar EarthquakeDetector.hostM.wlan[0].mac packetDropRetryLimitReached:count 0
attr interpolationmode none
attr source packetDropReasonIsRetryLimitReached(packetDropped)
attr title "packet drop: retry limit reached, count"
scalar EarthquakeDetector.hostM.wlan[0].mac packetDropRetryLimitReached:sum(packetBytes) 0
attr interpolationmode none
attr source packetDropReasonIsRetryLimitReached(packetDropped)
attr title "packet drop: retry limit reached, sum(packetBytes)"
scalar EarthquakeDetector.hostM.wlan[0].mac linkBroken:count 0
attr interpolationmode none
attr source linkBroken
attr title "link break, count"
scalar EarthquakeDetector.hostM.wlan[0].radio radioMode:count 2879
attr interpolationmode sample-hold
attr source radioModeChanged
attr title "Radio mode, count"
scalar EarthquakeDetector.hostM.wlan[0].radio receptionState:count 3369
attr interpolationmode sample-hold
attr source receptionStateChanged
attr title "Radio reception state, count"
scalar EarthquakeDetector.hostM.wlan[0].radio transmissionState:count 5752
attr interpolationmode sample-hold
attr source transmissionStateChanged
attr title "Radio transmission state, count"
statistic EarthquakeDetector.hostM.wlan[0].radio minSnir:histogram
field count 238
field mean 20.199595646076
field stddev 2.0087226198413
field min 19.825754809335
field max 30.947519702377
field sum 4807.5037637661
field sqrsum 98065.919170606
attr source minimumSnir(packetSentToUpper)
attr title "Min SNIR, histogram"
bin	-inf	0
bin	17	0
bin	17.2	0
bin	17.4	0
bin	17.6	0
bin	17.8	0
bin	18	0
bin	18.2	0
bin	18.4	0
bin	18.6	0
bin	18.8	0
bin	19	0
bin	19.2	0
bin	19.4	0
bin	19.6	0
bin	19.8	230
bin	20	0
bin	20.2	0
bin	20.4	0
bin	20.6	0
bin	20.8	0
bin	21	0
bin	21.2	0
bin	21.4	0
bin	21.6	0
bin	21.8	0
bin	22	0
bin	22.2	0
bin	22.4	0
bin	22.6	0
bin	22.8	0
bin	23	0
bin	23.2	0
bin	23.4	0
bin	23.6	0
bin	23.8	0
bin	24	0
bin	24.2	0
bin	24.4	0
bin	24.6	0
bin	24.8	0
bin	25	0
bin	25.2	0
bin	25.4	0
bin	25.6	0
bin	25.8	0
bin	26	0
bin	26.2	0
bin	26.4	0
bin	26.6	0
bin	26.8	0
bin	27	0
bin	27.2	0
bin	27.4	0
bin	27.6	0
bin	27.8	0
bin	28	0
bin	28.2	0
bin	28.4	0
bin	28.6	0
bin	28.8	0
bin	29	0
bin	29.2	0
bin	29.4	0
bin	29.6	0
bin	29.8	0
bin	30	0
bin	30.2	0
bin	30.4	0
bin	30.6	0
bin	30.8	8
bin	31	0
bin	31.2	0
bin	31.4	0
bin	31.6	0
bin	31.8	0
bin	32	0
bin	32.2	0
bin	32.4	0
bin	32.6	0
bin	32.8	0
bin	33	0
bin	33.2	0
bin	33.4	0
bin	33.6	0
bin	33.8	0
statistic EarthquakeDetector.hostM.wlan[0].radio packetErrorRate:histogram
field count 238
field mean 0
field stddev 0
field min 0
field max 0
field sum 0
field sqrsum 0
attr source packetErrorRate(packetSentToUpper)
attr title "Packet error rate, histogram"
bin	-inf	0
bin	-0.5	0
bin	-0.48	0
bin	-0.46	0
bin	-0.44	0
bin	-0.42	0
bin	-0.4	0
bin	-0.38	0
bin	-0.36	0
bin	-0.34	0
bin	-0.32	0
bin	-0.3	0
bin	-0.28	0
bin	-0.26	0
bin	-0.24	0
bin	-0.22	0
bin	-0.2	0
bin	-0.18	0
bin	-0.16	0
bin	-0.14	0
bin	-0.12	0
bin	-0.1	0
bin	-0.08	0
bin	-0.06	0
bin	-0.04	0
bin	-0.02	0
bin	0	238
bin	0.02	0
bin	0.04	0
bin	0.06	0
bin	0.08	0
bin	0.1	0
bin	0.12	0
bin	0.14	0
bin	0.16	0
bin	0.18	0
bin	0.2	0
bin	0.22	0
bin	0.24	0
bin	0.26	0
bin	0.28	0
bin	0.3	0
bin	0.32	0
bin	0.34	0
bin	0.36	0
bin	0.38	0
bin	0.4	0
bin	0.42	0
bin	0.44	0
bin	0.46	0
bin	0.48	0
bin	0.5	0
statistic EarthquakeDetector.hostM.wlan[0].radio bitErrorRate:histogram
field count 238
field mean 2.5743680439111e-19
field stddev 4.8113396536572e-20
field min 4.6822321405732e-29
field max 2.6639112802048e-19
field sum 6.1269959445084e-17
field sqrsum 1.6321773610245e-35
attr source bitErrorRate(packetSentToUpper)
attr title "Bit error rate, histogram"
bin	-inf	0
bin	0	8
bin	5e-21	0
bin	1e-20	0
bin	1.5e-20	0
bin	2e-20	0
bin	2.5e-20	0
bin	3e-20	0
bin	3.5e-20	0
bin	4e-20	0
bin	4.5e-20	0
bin	5e-20	0
bin	5.5e-20	0
bin	6e-20	0
bin	6.5e-20	0
bin	7e-20	0
bin	7.5e-20	0
bin	8e-20	0
bin	8.5e-20	0
bin	9e-20	0
bin	9.5e-20	0
bin	1e-19	0
bin	1.05e-19	0
bin	1.1e-19	0
bin	1.15e-19	0
bin	1.2e-19	0
bin	1.25e-19	0
bin	1.3e-19	0
bin	1.35e-19	0
bin	1.4e-19	0
bin	1.45e-19	0
bin	1.5e-19	0
bin	1.55e-19	0
bin	1.6e-19	0
bin	1.65e-19	0
bin	1.7e-19	0
bin	1.75e-19	0
bin	1.8e-19	0
bin	1.85e-19	0
bin	1.9e-19	0
bin	1.95e-19	0
bin	2e-19	0
bin	2.05e-19	0
bin	2.1e-19	0
bin	2.15e-19	0
bin	2.2e-19	0
bin	2.25e-19	0
bin	2.3e-19	0
bin	2.35e-19	0
bin	2.4e-19	0
bin	2.45e-19	0
bin	2.5e-19	0
bin	2.55e-19	0
bin	2.6e-19	0
bin	2.65e-19	230
bin	2.7e-19	0
bin	2.75e-19	0
bin	2.8e-19	0
bin	2.85e-19	0
bin	2.9e-19	0
bin	2.95e-19	0
bin	3e-19	0
bin	3.05e-19	0
bin	3.1e-19	0
bin	3.15e-19	0
bin	3.2e-19	0
bin	3.25e-19	0
bin	3.3e-19	0
bin	3.35e-19	0
statistic EarthquakeDetector.hostM.wlan[0].radio symbolErrorRate:histogram
field count 238
field mean 2.5743680439111e-19
field stddev 4.8113396536572e-20
field min 4.6822321405732e-29
field max 2.6639112802048e-19
field sum 6.1269959445084e-17
field sqrsum 1.6321773610245e-35
attr source symbolErrorRate(packetSentToUpper)
attr title "Symbol error rate, histogram"
bin	-inf	0
bin	0	8
bin	5e-21	0
bin	1e-20	0
bin	1.5e-20	0
bin	2e-20	0
bin	2.5e-20	0
bin	3e-20	0
bin	3.5e-20	0
bin	4e-20	0
bin	4.5e-20	0
bin	5e-20	0
bin	5.5e-20	0
bin	6e-20	0
bin	6.5e-20	0
bin	7e-20	0
bin	7.5e-20	0
bin	8e-20	0
bin	8.5e-20	0
bin	9e-20	0
bin	9.5e-20	0
bin	1e-19	0
bin	1.05e-19	0
bin	1.1e-19	0
bin	1.15e-19	0
bin	1.2e-19	0
bin	1.25e-19	0
bin	1.3e-19	0
bin	1.35e-19	0
bin	1.4e-19	0
bin	1.45e-19	0
bin	1.5e-19	0
bin	1.55e-19	0
bin	1.6e-19	0
bin	1.65e-19	0
bin	1.7e-19	0
bin	1.75e-19	0
bin	1.8e-19	0
bin	1.85e-19	0
bin	1.9e-19	0
bin	1.95e-19	0
bin	2e-19	0
bin	2.05e-19	0
bin	2.1e-19	0
bin	2.15e-19	0
bin	2.2e-19	0
bin	2.25e-19	0
bin	2.3e-19	0
bin	2.35e-19	0
bin	2.4e-19	0
bin	2.45e-19	0
bin	2.5e-19	0
bin	2.55e-19	0
bin	2.6e-19	0
bin	2.65e-19	230
bin	2.7e-19	0
bin	2.75e-19	0
bin	2.8e-19	0
bin	2.85e-19	0
bin	2.9e-19	0
bin	2.95e-19	0
bin	3e-19	0
bin	3.05e-19	0
bin	3.1e-19	0
bin	3.15e-19	0
bin	3.2e-19	0
bin	3.25e-19	0
bin	3.3e-19	0
bin	3.35e-19	0
scalar EarthquakeDetector.hostM.ipv4.ip packetDropAddressResolutionFailed:count 0
attr interpolationmode none
attr source packetDropReasonIsAddressResolutionFailed(packetDropped)
attr title "packet drop: address resolution failed, count"
scalar EarthquakeDetector.hostM.ipv4.ip packetDropAddressResolutionFailed:sum(packetBytes) 0
attr interpolationmode none
attr source packetDropReasonIsAddressResolutionFailed(packetDropped)
attr title "packet drop: address resolution failed, sum(packetBytes)"
scalar EarthquakeDetector.hostM.ipv4.ip packetDropHopLimitReached:count 0
attr interpolationmode none
attr source packetDropReasonIsHopLimitReached(packetDropped)
attr title "packet drop: hop limit reached, count"
scalar EarthquakeDetector.hostM.ipv4.ip packetDropHopLimitReached:sum(packetBytes) 0
attr interpolationmode none
attr source packetDropReasonIsHopLimitReached(packetDropped)
attr title "packet drop: hop limit reached, sum(packetBytes)"
scalar EarthquakeDetector.hostM.ipv4.ip packetDropForwardingDisabled:count 0
attr interpolationmode none
attr source packetDropReasonIsForwardingDisabled(packetDropped)
attr title "packet drop: forwarding disabled, count"
scalar EarthquakeDetector.hostM.ipv4.ip packetDropForwardingDisabled:sum(packetBytes) 0
attr interpolationmode none
attr source packetDropReasonIsForwardingDisabled(packetDropped)
attr title "packet drop: forwarding disabled, sum(packetBytes)"
scalar EarthquakeDetector.hostM.ipv4.ip packetDropNoInterfaceFound:count 0
attr interpolationmode none
attr source packetDropReasonIsNoInterfaceFound(packetDropped)
attr title "packet drop: no interface found, count"
scalar EarthquakeDetector.hostM.ipv4.ip packetDropNoInterfaceFound:sum(packetBytes) 0
attr interpolationmode none
attr source packetDropReasonIsNoInterfaceFound(packetDropped)
attr title "packet drop: no interface found, sum(packetBytes)"
scalar EarthquakeDetector.hostM.ipv4.ip packetDropNoRouteFound:count 0
attr interpolationmode none
attr source packetDropReasonIsNoRouteFound(packetDropped)
attr title "packet drop: no route found, count"
scalar EarthquakeDetector.hostM.ipv4.ip packetDropNoRouteFound:sum(packetBytes) 0
attr interpolationmode none
attr source packetDropReasonIsNoRouteFound(packetDropped)
attr title "packet drop: no route found, sum(packetBytes)"
scalar EarthquakeDetector.hostM.ipv4.ip packetDropUndefined:count 0
attr interpolationmode none
attr source packetDropReasonIsUndefined(packetDropped)
attr title "packet drop: undefined, count"
scalar EarthquakeDetector.hostM.ipv4.ip packetDropUndefined:sum(packetBytes) 0
attr interpolationmode none
attr source packetDropReasonIsUndefined(packetDropped)
attr title "packet drop: undefined, sum(packetBytes)"
scalar EarthquakeDetector.hostM.udp packetReceived:count 12
attr interpolationmode none
attr source packetReceived
attr title "packets received, count"
scalar EarthquakeDetector.hostM.udp packetReceived:sum(packetBytes) 376
attr interpolationmode none
attr source packetReceived
attr title "packets received, sum(packetBytes)"
scalar EarthquakeDetector.hostM.udp packetSent:count 1456
attr interpolationmode none
attr source packetSent
attr title "packets sent, count"
scalar EarthquakeDetector.hostM.udp packetSent:sum(packetBytes) 1464720
attr interpolationmode none
attr source packetSent
attr title "packets sent, sum(packetBytes)"
scalar EarthquakeDetector.hostM.udp passedUpPk:count 12
attr interpolationmode none
attr source packetSentToUpper
attr title "packets passed up, count"
scalar EarthquakeDetector.hostM.udp droppedPkWrongPort:count 0
attr interpolationmode none
attr source packetDropReasonIsNoPortFound(packetDropped)
attr title "packets dropped (wrong port), count"
scalar EarthquakeDetector.hostM.udp droppedPkBadChecksum:count 0
attr interpolationmode none
attr source packetDropReasonIsIncorrectlyReceived(packetDropped)
attr title "packets dropped (checksum error), count"
scalar EarthquakeDetector.hostM.app[0] "packets sent" 1453
scalar EarthquakeDetector.hostM.app[0] "packets received" 0
scalar EarthquakeDetector.hostM.app[0] packetReceived:count 0
attr interpolationmode none
attr source packetReceived
attr title "packets received, count"
scalar EarthquakeDetector.hostM.app[0] packetReceived:sum(packetBytes) 0
attr interpolationmode none
attr source packetReceived
attr title "packets received, sum(packetBytes)"
statistic EarthquakeDetector.hostM.app[0] rcvdPkLifetime:stats
field count 0
field mean -nan
field stddev -nan
field min -nan
field max -nan
field sum 0
field sqrsum 0
attr interpolationmode none
attr source dataAge(packetReceived)
attr title "received packet lifetime, stats"
attr unit s
scalar EarthquakeDetector.hostM.app[0] packetSent:count 1453
attr interpolationmode none
attr source packetSent
attr title "packets sent, count"
scalar EarthquakeDetector.hostM.app[0] packetSent:sum(packetBytes) 1453000
attr interpolationmode none
attr source packetSent
attr title "packets sent, sum(packetBytes)"
scalar EarthquakeDetector.hostS1.energyStorage residualEnergyCapacity:last -0.14750290203269
attr interpolationmode linear
attr source residualEnergyCapacityChanged
attr title "Residual energy capacity, last"
scalar EarthquakeDetector.hostS1.lo[0].lo rcvdPkFromHl:count 0
attr interpolationmode none
attr source packetReceivedFromUpper
attr title "packets received from higher layer, count"
scalar EarthquakeDetector.hostS1.lo[0].lo rcvdPkFromHl:sum(packetBytes) 0
attr interpolationmode none
attr source packetReceivedFromUpper
attr title "packets received from higher layer, sum(packetBytes)"
scalar EarthquakeDetector.hostS1.lo[0].lo passedUpPk:count 0
attr interpolationmode none
attr source packetSentToUpper
attr title "packets passed to higher layer, count"
scalar EarthquakeDetector.hostS1.lo[0].lo passedUpPk:sum(packetBytes) 0
attr interpolationmode none
attr source packetSentToUpper
attr title "packets passed to higher layer, sum(packetBytes)"
scalar EarthquakeDetector.hostS1.wlan[0].mac.queue packetPopped:count 2
attr interpolationmode none
attr title "packet popped, count"
scalar EarthquakeDetector.hostS1.wlan[0].mac.queue packetPopped:sum(packetBytes) 154
attr interpolationmode none
attr title "packet popped, sum(packetBytes)"
statistic EarthquakeDetector.hostS1.wlan[0].mac.queue queueingTime:histogram
field count 2
field mean 0.004013429976
field stddev 0.0056758471036939
field min 0
field max 0.008026859952
field sum 0.008026859952
field sqrsum 6.4430480689021e-05
attr interpolationmode none
attr source queueingTime(packetPopped)
attr title "queueing times, histogram"
attr unit s
bin	-inf	0
bin	0	1
bin	0.0002	0
bin	0.0004	0
bin	0.0006	0
bin	0.0008	0
bin	0.001	0
bin	0.0012	0
bin	0.0014	0
bin	0.0016	0
bin	0.0018	0
bin	0.002	0
bin	0.0022	0
bin	0.0024	0
bin	0.0026	0
bin	0.0028	0
bin	0.003	0
bin	0.0032	0
bin	0.0034	0
bin	0.0036	0
bin	0.0038	0
bin	0.004	0
bin	0.0042	0
bin	0.0044	0
bin	0.0046	0
bin	0.0048	0
bin	0.005	0
bin	0.0052	0
bin	0.0054	0
bin	0.0056	0
bin	0.0058	0
bin	0.006	0
bin	0.0062	0
bin	0.0064	0
bin	0.0066	0
bin	0.0068	0
bin	0.007	0
bin	0.0072	0
bin	0.0074	0
bin	0.0076	0
bin	0.0078	0
bin	0.008	1
bin	0.0082	0
bin	0.0084	0
bin	0.0086	0
bin	0.0088	0
bin	0.009	0
bin	0.0092	0
bin	0.0094	0
bin	0.0096	0
bin	0.0098	0
bin	0.01	0
bin	0.0102	0
scalar EarthquakeDetector.hostS1.wlan[0].mac.queue queueLength:max 1
attr interpolationmode sample-hold
attr source "count(packetPushed) - count(packetPopped) - count(packetRemoved) - count(packetDropped)"
attr title "queue length, max"
scalar EarthquakeDetector.hostS1.wlan[0].mac.queue queueLength:timeavg 0.00047043718907745
attr interpolationmode sample-hold
attr source "count(packetPushed) - count(packetPopped) - count(packetRemoved) - count(packetDropped)"
attr title "queue length, timeavg"
scalar EarthquakeDetector.hostS1.wlan[0].mac.queue packetPushed:count 2
attr interpolationmode none
attr title "packet pushed, count"
scalar EarthquakeDetector.hostS1.wlan[0].mac.queue packetPushed:sum(packetBytes) 154
attr interpolationmode none
attr title "packet pushed, sum(packetBytes)"
scalar EarthquakeDetector.hostS1.wlan[0].mac.queue packetDropQueueOverflow:count 0
attr interpolationmode none
attr source packetDropReasonIsQueueOverflow(packetDropped)
attr title "packet drops: queue overflow, count"
scalar EarthquakeDetector.hostS1.wlan[0].mac.queue packetDropQueueOverflow:sum(packetBytes) 0
attr interpolationmode none
attr source packetDropReasonIsQueueOverflow(packetDropped)
attr title "packet drops: queue overflow, sum(packetBytes)"
scalar EarthquakeDetector.hostS1.wlan[0].mac.queue packetRemoved:count 0
attr interpolationmode none
attr title "packets removed, count"
scalar EarthquakeDetector.hostS1.wlan[0].mac.queue packetRemoved:sum(packetBytes) 0
attr interpolationmode none
attr title "packets removed, sum(packetBytes)"
scalar EarthquakeDetector.hostS1.wlan[0].mac numRetry 0
scalar EarthquakeDetector.hostS1.wlan[0].mac numSentWithoutRetry 0
scalar EarthquakeDetector.hostS1.wlan[0].mac numGivenUp 0
scalar EarthquakeDetector.hostS1.wlan[0].mac numCollision 16
scalar EarthquakeDetector.hostS1.wlan[0].mac numSent 1
scalar EarthquakeDetector.hostS1.wlan[0].mac numReceived 289
scalar EarthquakeDetector.hostS1.wlan[0].mac numSentBroadcast 1
scalar EarthquakeDetector.hostS1.wlan[0].mac numReceivedBroadcast 12
scalar EarthquakeDetector.hostS1.wlan[0].mac packetDropIncorrectlyReceived:count 16
attr interpolationmode none
attr source packetDropReasonIsIncorrectlyReceived(packetDropped)
attr title "packet drop: incorrectly received, count"
scalar EarthquakeDetector.hostS1.wlan[0].mac packetDropIncorrectlyReceived:sum(packetBytes) 16880
attr interpolationmode none
attr source packetDropReasonIsIncorrectlyReceived(packetDropped)
attr title "packet drop: incorrectly received, sum(packetBytes)"
scalar EarthquakeDetector.hostS1.wlan[0].mac packetDropNotAddressedToUs:count 1356
attr interpolationmode none
attr source packetDropReasonIsNotAddressedToUs(packetDropped)
attr title "packet drop: not addressed to us, count"
scalar EarthquakeDetector.hostS1.wlan[0].mac packetDropNotAddressedToUs:sum(packetBytes) 1429600
attr interpolationmode none
attr source packetDropReasonIsNotAddressedToUs(packetDropped)
attr title "packet drop: not addressed to us, sum(packetBytes)"
scalar EarthquakeDetector.hostS1.wlan[0].mac packetDropQueueOverflow:count 0
attr interpolationmode none
attr source packetDropReasonIsQueueOverflow(packetDropped)
attr title "packet drop: queue overflow, count"
scalar EarthquakeDetector.hostS1.wlan[0].mac packetDropQueueOverflow:sum(packetBytes) 0
attr interpolationmode none
attr source packetDropReasonIsQueueOverflow(packetDropped)
attr title "packet drop: queue overflow, sum(packetBytes)"
scalar EarthquakeDetector.hostS1.wlan[0].mac packetDropRetryLimitReached:count 0
attr interpolationmode none
attr source packetDropReasonIsRetryLimitReached(packetDropped)
attr title "packet drop: retry limit reached, count"
scalar EarthquakeDetector.hostS1.wlan[0].mac packetDropRetryLimitReached:sum(packetBytes) 0
attr interpolationmode none
attr source packetDropReasonIsRetryLimitReached(packetDropped)
attr title "packet drop: retry limit reached, sum(packetBytes)"
scalar EarthquakeDetector.hostS1.wlan[0].mac linkBroken:count 0
attr interpolationmode none
attr source linkBroken
attr title "link break, count"
scalar EarthquakeDetector.hostS1.wlan[0].radio radioMode:count 7
attr interpolationmode sample-hold
attr source radioModeChanged
attr title "Radio mode, count"
scalar EarthquakeDetector.hostS1.wlan[0].radio receptionState:count 3369
attr interpolationmode sample-hold
attr source receptionStateChanged
attr title "Radio reception state, count"
scalar EarthquakeDetector.hostS1.wlan[0].radio transmissionState:count 8
attr interpolationmode sample-hold
attr source transmissionStateChanged
attr title "Radio transmission state, count"
statistic EarthquakeDetector.hostS1.wlan[0].radio minSnir:histogram
field count 1674
field mean 30.606947266208
field stddev 3.0578289673435
field min 0.96869866552033
field max 30.947519702377
field sum 51236.029723633
field sqrsum 1583821.5418843
attr source minimumSnir(packetSentToUpper)
attr title "Min SNIR, histogram"
bin	-inf	0
bin	0.5	16
bin	1	0
bin	1.5	0
bin	2	0
bin	2.5	0
bin	3	0
bin	3.5	0
bin	4	0
bin	4.5	0
bin	5	0
bin	5.5	0
bin	6	0
bin	6.5	0
bin	7	0
bin	7.5	0
bin	8	0
bin	8.5	0
bin	9	0
bin	9.5	0
bin	10	0
bin	10.5	0
bin	11	0
bin	11.5	3
bin	12	0
bin	12.5	0
bin	13	0
bin	13.5	0
bin	14	0
bin	14.5	0
bin	15	0
bin	15.5	0
bin	16	0
bin	16.5	0
bin	17	0
bin	17.5	0
bin	18	0
bin	18.5	0
bin	19	0
bin	19.5	3
bin	20	0
bin	20.5	0
bin	21	0
bin	21.5	0
bin	22	0
bin	22.5	0
bin	23	0
bin	23.5	0
bin	24	0
bin	24.5	0
bin	25	0
bin	25.5	0
bin	26	0
bin	26.5	0
bin	27	0
bin	27.5	0
bin	28	0
bin	28.5	0
bin	29	0
bin	29.5	0
bin	30	0
bin	30.5	1652
bin	31	0
bin	31.5	0
bin	32	0
bin	32.5	0
bin	33	0
bin	33.5	0
bin	34	0
bin	34.5	0
bin	35	0
bin	35.5	0
bin	36	0
statistic EarthquakeDetector.hostS1.wlan[0].radio packetErrorRate:histogram
field count 1674
field mean 0.0095579450449652
field stddev 0.097325480634064
field min 0
field max 1
field sum 16.000000005272
field sqrsum 16
attr source packetErrorRate(packetSentToUpper)
attr title "Packet error rate, histogram"
bin	-inf	0
bin	0	1658
bin	0.02	0
bin	0.04	0
bin	0.06	0
bin	0.08	0
bin	0.1	0
bin	0.12	0
bin	0.14	0
bin	0.16	0
bin	0.18	0
bin	0.2	0
bin	0.22	0
bin	0.24	0
bin	0.26	0
bin	0.28	0
bin	0.3	0
bin	0.32	0
bin	0.34	0
bin	0.36	0
bin	0.38	0
bin	0.4	0
bin	0.42	0
bin	0.44	0
bin	0.46	0
bin	0.48	0
bin	0.5	0
bin	0.52	0
bin	0.54	0
bin	0.56	0
bin	0.58	0
bin	0.6	0
bin	0.62	0
bin	0.64	0
bin	0.66	0
bin	0.68	0
bin	0.7	0
bin	0.72	0
bin	0.74	0
bin	0.76	0
bin	0.78	0
bin	0.8	0
bin	0.82	0
bin	0.84	0
bin	0.86	0
bin	0.88	0
bin	0.9	0
bin	0.92	0
bin	0.94	0
bin	0.96	0
bin	0.98	0
bin	1	16
bin	1.02	0
statistic EarthquakeDetector.hostS1.wlan[0].radio bitErrorRate:histogram
field count 1674
field mean 0.00023424757632908
field stddev 0.0023852677383557
field min 4.6822321405732e-29
field max 0.024508152672956
field sum 0.39213044277488
field sqrsum 0.0096103927590551
attr source bitErrorRate(packetSentToUpper)
attr title "Bit error rate, histogram"
bin	-inf	0
bin	0	1658
bin	0.0005	0
bin	0.001	0
bin	0.0015	0
bin	0.002	0
bin	0.0025	0
bin	0.003	0
bin	0.0035	0
bin	0.004	0
bin	0.0045	0
bin	0.005	0
bin	0.0055	0
bin	0.006	0
bin	0.0065	0
bin	0.007	0
bin	0.0075	0
bin	0.008	0
bin	0.0085	0
bin	0.009	0
bin	0.0095	0
bin	0.01	0
bin	0.0105	0
bin	0.011	0
bin	0.0115	0
bin	0.012	0
bin	0.0125	0
bin	0.013	0
bin	0.0135	0
bin	0.014	0
bin	0.0145	0
bin	0.015	0
bin	0.0155	0
bin	0.016	0
bin	0.0165	0
bin	0.017	0
bin	0.0175	0
bin	0.018	0
bin	0.0185	0
bin	0.019	0
bin	0.0195	0
bin	0.02	0
bin	0.0205	0
bin	0.021	0
bin	0.0215	0
bin	0.022	0
bin	0.0225	0
bin	0.023	0
bin	0.0235	0
bin	0.024	0
bin	0.0245	16
bin	0.025	0
statistic EarthquakeDetector.hostS1.wlan[0].radio symbolErrorRate:histogram
field count 1674
field mean 0.00023424757632908
field stddev 0.0023852677383557
field min 4.6822321405732e-29
field max 0.024508152672956
field sum 0.39213044277488
field sqrsum 0.0096103927590551
attr source symbolErrorRate(packetSentToUpper)
attr title "Symbol error rate, histogram"
bin	-inf	0
bin	0	1658
bin	0.0005	0
bin	0.001	0
bin	0.0015	0
bin	0.002	0
bin	0.0025	0
bin	0.003	0
bin	0.0035	0
bin	0.004	0
bin	0.0045	0
bin	0.005	0
bin	0.0055	0
bin	0.006	0
bin	0.0065	0
bin	0.007	0
bin	0.0075	0
bin	0.008	0
bin	0.0085	0
bin	0.009	0
bin	0.0095	0
bin	0.01	0
bin	0.0105	0
bin	0.011	0
bin	0.0115	0
bin	0.012	0
bin	0.0125	0
bin	0.013	0
bin	0.0135	0
bin	0.014	0
bin	0.0145	0
bin	0.015	0
bin	0.0155	0
bin	0.016	0
bin	0.0165	0
bin	0.017	0
bin	0.0175	0
bin	0.018	0
bin	0.0185	0
bin	0.019	0
bin	0.0195	0
bin	0.02	0
bin	0.0205	0
bin	0.021	0
bin	0.0215	0
bin	0.022	0
bin	0.0225	0
bin	0.023	0
bin	0.0235	0
bin	0.024	0
bin	0.0245	16
bin	0.025	0
scalar EarthquakeDetector.hostS1.ipv4.ip packetDropAddressResolutionFailed:count 0
attr interpolationmode none
attr source packetDropReasonIsAddressResolutionFailed(packetDropped)
attr title "packet drop: address resolution failed, count"
scalar EarthquakeDetector.hostS1.ipv4.ip packetDropAddressResolutionFailed:sum(packetBytes) 0
attr interpolationmode none
attr source packetDropReasonIsAddressResolutionFailed(packetDropped)
attr title "packet drop: address resolution failed, sum(packetBytes)"
scalar EarthquakeDetector.hostS1.ipv4.ip packetDropHopLimitReached:count 0
attr interpolationmode none
attr source packetDropReasonIsHopLimitReached(packetDropped)
attr title "packet drop: hop limit reached, count"
scalar EarthquakeDetector.hostS1.ipv4.ip packetDropHopLimitReached:sum(packetBytes) 0
attr interpolationmode none
attr source packetDropReasonIsHopLimitReached(packetDropped)
attr title "packet drop: hop limit reached, sum(packetBytes)"
scalar EarthquakeDetector.hostS1.ipv4.ip packetDropForwardingDisabled:count 0
attr interpolationmode none
attr source packetDropReasonIsForwardingDisabled(packetDropped)
attr title "packet drop: forwarding disabled, count"
scalar EarthquakeDetector.hostS1.ipv4.ip packetDropForwardingDisabled:sum(packetBytes) 0
attr interpolationmode none
attr source packetDropReasonIsForwardingDisabled(packetDropped)
attr title "packet drop: forwarding disabled, sum(packetBytes)"
scalar EarthquakeDetector.hostS1.ipv4.ip packetDropNoInterfaceFound:count 0
attr interpolationmode none
attr source packetDropReasonIsNoInterfaceFound(packetDropped)
attr title "packet drop: no interface found, count"
scalar EarthquakeDetector.hostS1.ipv4.ip packetDropNoInterfaceFound:sum(packetBytes) 0
attr interpolationmode none
attr source packetDropReasonIsNoInterfaceFound(packetDropped)
attr title "packet drop: no interface found, sum(packetBytes)"
scalar EarthquakeDetector.hostS1.ipv4.ip packetDropNoRouteFound:count 0
attr interpolationmode none
attr source packetDropReasonIsNoRouteFound(packetDropped)
attr title "packet drop: no route found, count"
scalar EarthquakeDetector.hostS1.ipv4.ip packetDropNoRouteFound:sum(packetBytes) 0
attr interpolationmode none
attr source packetDropReasonIsNoRouteFound(packetDropped)
attr title "packet drop: no route found, sum(packetBytes)"
scalar EarthquakeDetector.hostS1.ipv4.ip packetDropUndefined:count 0
attr interpolationmode none
attr source packetDropReasonIsUndefined(packetDropped)
attr title "packet drop: undefined, count"
scalar EarthquakeDetector.hostS1.ipv4.ip packetDropUndefined:sum(packetBytes) 0
attr interpolationmode none
attr source packetDropReasonIsUndefined(packetDropped)
attr title "packet drop: undefined, sum(packetBytes)"
scalar EarthquakeDetector.hostS1.udp packetReceived:count 301
attr interpolationmode none
attr source packetReceived
attr title "packets received, count"
scalar EarthquakeDetector.hostS1.udp packetReceived:sum(packetBytes) 291696
attr interpolationmode none
attr source packetReceived
attr title "packets received, sum(packetBytes)"
scalar EarthquakeDetector.hostS1.udp packetSent:count 2
attr interpolationmode none
attr source packetSent
attr title "packets sent, count"
scalar EarthquakeDetector.hostS1.udp packetSent:sum(packetBytes) 60
attr interpolationmode none
attr source packetSent
attr title "packets sent, sum(packetBytes)"
scalar EarthquakeDetector.hostS1.udp passedUpPk:count 301
attr interpolationmode none
attr source packetSentToUpper
attr title "packets passed up, count"
scalar EarthquakeDetector.hostS1.udp droppedPkWrongPort:count 0
attr interpolationmode none
attr source packetDropReasonIsNoPortFound(packetDropped)
attr title "packets dropped (wrong port), count"
scalar EarthquakeDetector.hostS1.udp droppedPkBadChecksum:count 0
attr interpolationmode none
attr source packetDropReasonIsIncorrectlyReceived(packetDropped)
attr title "packets dropped (checksum error), count"
scalar EarthquakeDetector.hostS1.app[0] packetReceived:count 289
attr interpolationmode none
attr source packetReceived
attr title "packets received, count"
scalar EarthquakeDetector.hostS1.app[0] packetReceived:sum(packetBytes) 289000
attr interpolationmode none
attr source packetReceived
attr title "packets received, sum(packetBytes)"
statistic EarthquakeDetector.hostS1.app[0] endToEndDelay:histogram
field count 289
field mean 0.038675216879277
field stddev 0.028184735380568
field min 0.008514533963
field max 0.106648516369
field sum 11.177137678111
field sqrsum 0.6610594646306
attr interpolationmode none
attr source dataAge(packetReceived)
attr title "end-to-end delay, histogram"
attr unit s
bin	-inf	0
bin	0	0
bin	0.002	0
bin	0.004	0
bin	0.006	0
bin	0.008	52
bin	0.01	6
bin	0.012	14
bin	0.014	12
bin	0.016	8
bin	0.018	9
bin	0.02	8
bin	0.022	12
bin	0.024	8
bin	0.026	5
bin	0.028	4
bin	0.03	11
bin	0.032	6
bin	0.034	5
bin	0.036	7
bin	0.038	7
bin	0.04	6
bin	0.042	5
bin	0.044	9
bin	0.046	2
bin	0.048	7
bin	0.05	2
bin	0.052	6
bin	0.054	8
bin	0.056	6
bin	0.058	1
bin	0.06	1
bin	0.062	0
bin	0.064	5
bin	0.066	1
bin	0.068	5
bin	0.07	3
bin	0.072	3
bin	0.074	4
bin	0.076	2
bin	0.078	3
bin	0.08	2
bin	0.082	2
bin	0.084	2
bin	0.086	3
bin	0.088	6
bin	0.09	3
bin	0.092	1
bin	0.094	3
bin	0.096	3
bin	0.098	3
bin	0.1	3
bin	0.102	1
bin	0.104	2
bin	0.106	2
bin	0.108	0
bin	0.11	0
bin	0.112	0
bin	0.114	0
bin	0.116	0
bin	0.118	0
bin	0.12	0
bin	0.122	0
bin	0.124	0
bin	0.126	0
bin	0.128	0
scalar EarthquakeDetector.hostS2.energyStorage residualEnergyCapacity:last -0.14756934843845
attr interpolationmode linear
attr source residualEnergyCapacityChanged
attr title "Residual energy capacity, last"
scalar EarthquakeDetector.hostS2.lo[0].lo rcvdPkFromHl:count 0
attr interpolationmode none
attr source packetReceivedFromUpper
attr title "packets received from higher layer, count"
scalar EarthquakeDetector.hostS2.lo[0].lo rcvdPkFromHl:sum(packetBytes) 0
attr interpolationmode none
attr source packetReceivedFromUpper
attr title "packets received from higher layer, sum(packetBytes)"
scalar EarthquakeDetector.hostS2.lo[0].lo passedUpPk:count 0
attr interpolationmode none
attr source packetSentToUpper
attr title "packets passed to higher layer, count"
scalar EarthquakeDetector.hostS2.lo[0].lo passedUpPk:sum(packetBytes) 0
attr interpolationmode none
attr source packetSentToUpper
attr title "packets passed to higher layer, sum(packetBytes)"
scalar EarthquakeDetector.hostS2.wlan[0].mac.queue packetPopped:count 3
attr interpolationmode none
attr title "packet popped, count"
scalar EarthquakeDetector.hostS2.wlan[0].mac.queue packetPopped:sum(packetBytes) 237
attr interpolationmode none
attr title "packet popped, sum(packetBytes)"
statistic EarthquakeDetector.hostS2.wlan[0].mac.queue queueingTime:histogram
field count 3
field mean 0.0024069141226667
field stddev 0.0041688975499137
field min 0
field max 0.007220742368
field sum 0.007220742368
field sqrsum 5.213912034503e-05
attr interpolationmode none
attr source queueingTime(packetPopped)
attr title "queueing times, histogram"
attr unit s
bin	-inf	0
bin	0	2
bin	0.0002	0
bin	0.0004	0
bin	0.0006	0
bin	0.0008	0
bin	0.001	0
bin	0.0012	0
bin	0.0014	0
bin	0.0016	0
bin	0.0018	0
bin	0.002	0
bin	0.0022	0
bin	0.0024	0
bin	0.0026	0
bin	0.0028	0
bin	0.003	0
bin	0.0032	0
bin	0.0034	0
bin	0.0036	0
bin	0.0038	0
bin	0.004	0
bin	0.0042	0
bin	0.0044	0
bin	0.0046	0
bin	0.0048	0
bin	0.005	0
bin	0.0052	0
bin	0.0054	0
bin	0.0056	0
bin	0.0058	0
bin	0.006	0
bin	0.0062	0
bin	0.0064	0
bin	0.0066	0
bin	0.0068	0
bin	0.007	0
bin	0.0072	1
bin	0.0074	0
bin	0.0076	0
bin	0.0078	0
bin	0.008	0
bin	0.0082	0
bin	0.0084	0
bin	0.0086	0
bin	0.0088	0
bin	0.009	0
bin	0.0092	0
scalar EarthquakeDetector.hostS2.wlan[0].mac.queue queueLength:max 1
attr interpolationmode sample-hold
attr source "count(packetPushed) - count(packetPopped) - count(packetRemoved) - count(packetDropped)"
attr title "queue length, max"
scalar EarthquakeDetector.hostS2.wlan[0].mac.queue queueLength:timeavg 0.0004232515965562
attr interpolationmode sample-hold
attr source "count(packetPushed) - count(packetPopped) - count(packetRemoved) - count(packetDropped)"
attr title "queue length, timeavg"
scalar EarthquakeDetector.hostS2.wlan[0].mac.queue packetPushed:count 3
attr interpolationmode none
attr title "packet pushed, count"
scalar EarthquakeDetector.hostS2.wlan[0].mac.queue packetPushed:sum(packetBytes) 237
attr interpolationmode none
attr title "packet pushed, sum(packetBytes)"
scalar EarthquakeDetector.hostS2.wlan[0].mac.queue packetDropQueueOverflow:count 0
attr interpolationmode none
attr source packetDropReasonIsQueueOverflow(packetDropped)
attr title "packet drops: queue overflow, count"
scalar EarthquakeDetector.hostS2.wlan[0].mac.queue packetDropQueueOverflow:sum(packetBytes) 0
attr interpolationmode none
attr source packetDropReasonIsQueueOverflow(packetDropped)
attr title "packet drops: queue overflow, sum(packetBytes)"
scalar EarthquakeDetector.hostS2.wlan[0].mac.queue packetRemoved:count 0
attr interpolationmode none
attr title "packets removed, count"
scalar EarthquakeDetector.hostS2.wlan[0].mac.queue packetRemoved:sum(packetBytes) 0
attr interpolationmode none
attr title "packets removed, sum(packetBytes)"
scalar EarthquakeDetector.hostS2.wlan[0].mac numRetry 0
scalar EarthquakeDetector.hostS2.wlan[0].mac numSentWithoutRetry 0
scalar EarthquakeDetector.hostS2.wlan[0].mac numGivenUp 0
scalar EarthquakeDetector.hostS2.wlan[0].mac numCollision 30
scalar EarthquakeDetector.hostS2.wlan[0].mac numSent 0
scalar EarthquakeDetector.hostS2.wlan[0].mac numReceived 294
scalar EarthquakeDetector.hostS2.wlan[0].mac numSentBroadcast 3
scalar EarthquakeDetector.hostS2.wlan[0].mac numReceivedBroadcast 10
scalar EarthquakeDetector.hostS2.wlan[0].mac packetDropIncorrectlyReceived:count 30
attr interpolationmode none
attr source packetDropReasonIsIncorrectlyReceived(packetDropped)
attr title "packet drop: incorrectly received, count"
scalar EarthquakeDetector.hostS2.wlan[0].mac packetDropIncorrectlyReceived:sum(packetBytes) 31650
attr interpolationmode none
attr source packetDropReasonIsIncorrectlyReceived(packetDropped)
attr title "packet drop: incorrectly received, sum(packetBytes)"
scalar EarthquakeDetector.hostS2.wlan[0].mac packetDropNotAddressedToUs:count 1338
attr interpolationmode none
attr source packetDropReasonIsNotAddressedToUs(packetDropped)
attr title "packet drop: not addressed to us, count"
scalar EarthquakeDetector.hostS2.wlan[0].mac packetDropNotAddressedToUs:sum(packetBytes) 1409630
attr interpolationmode none
attr source packetDropReasonIsNotAddressedToUs(packetDropped)
attr title "packet drop: not addressed to us, sum(packetBytes)"
scalar EarthquakeDetector.hostS2.wlan[0].mac packetDropQueueOverflow:count 0
attr interpolationmode none
attr source packetDropReasonIsQueueOverflow(packetDropped)
attr title "packet drop: queue overflow, count"
scalar EarthquakeDetector.hostS2.wlan[0].mac packetDropQueueOverflow:sum(packetBytes) 0
attr interpolationmode none
attr source packetDropReasonIsQueueOverflow(packetDropped)
attr title "packet drop: queue overflow, sum(packetBytes)"
scalar EarthquakeDetector.hostS2.wlan[0].mac packetDropRetryLimitReached:count 0
attr interpolationmode none
attr source packetDropReasonIsRetryLimitReached(packetDropped)
attr title "packet drop: retry limit reached, count"
scalar EarthquakeDetector.hostS2.wlan[0].mac packetDropRetryLimitReached:sum(packetBytes) 0
attr interpolationmode none
attr source packetDropReasonIsRetryLimitReached(packetDropped)
attr title "packet drop: retry limit reached, sum(packetBytes)"
scalar EarthquakeDetector.hostS2.wlan[0].mac linkBroken:count 0
attr interpolationmode none
attr source linkBroken
attr title "link break, count"
scalar EarthquakeDetector.hostS2.wlan[0].radio radioMode:count 9
attr interpolationmode sample-hold
attr source radioModeChanged
attr title "Radio mode, count"
scalar EarthquakeDetector.hostS2.wlan[0].radio receptionState:count 3369
attr interpolationmode sample-hold
attr source receptionStateChanged
attr title "Radio reception state, count"
scalar EarthquakeDetector.hostS2.wlan[0].radio transmissionState:count 12
attr interpolationmode sample-hold
attr source transmissionStateChanged
attr title "Radio transmission state, count"
statistic EarthquakeDetector.hostS2.wlan[0].radio minSnir:histogram
field count 1673
field mean 26.966950870885
field stddev 9.4940127917097
field min 4.1724417011521
field max 30.947519702377
field sum 45115.708806991
field sqrsum 1367340.961206
attr source minimumSnir(packetSentToUpper)
attr title "Min SNIR, histogram"
bin	-inf	0
bin	0	0
bin	0.5	0
bin	1	0
bin	1.5	0
bin	2	0
bin	2.5	0
bin	3	0
bin	3.5	0
bin	4	233
bin	4.5	0
bin	5	0
bin	5.5	16
bin	6	0
bin	6.5	0
bin	7	0
bin	7.5	0
bin	8	0
bin	8.5	0
bin	9	0
bin	9.5	0
bin	10	0
bin	10.5	0
bin	11	0
bin	11.5	0
bin	12	0
bin	12.5	0
bin	13	0
bin	13.5	0
bin	14	0
bin	14.5	0
bin	15	0
bin	15.5	0
bin	16	0
bin	16.5	0
bin	17	0
bin	17.5	0
bin	18	0
bin	18.5	0
bin	19	0
bin	19.5	2
bin	20	0
bin	20.5	0
bin	21	0
bin	21.5	0
bin	22	0
bin	22.5	0
bin	23	0
bin	23.5	0
bin	24	0
bin	24.5	0
bin	25	0
bin	25.5	0
bin	26	0
bin	26.5	0
bin	27	0
bin	27.5	0
bin	28	0
bin	28.5	0
bin	29	0
bin	29.5	0
bin	30	0
bin	30.5	1422
bin	31	0
bin	31.5	0
bin	32	0
bin	32.5	0
bin	33	0
bin	33.5	0
bin	34	0
bin	34.5	0
bin	35	0
bin	35.5	0
bin	36	0
bin	36.5	0
bin	37	0
bin	37.5	0
bin	38	0
statistic EarthquakeDetector.hostS2.wlan[0].radio packetErrorRate:histogram
field count 1673
field mean 0.023150736911446
field stddev 0.058334052318963
field min 0
field max 0.17069372438854
field sum 38.731182852849
field sqrsum 6.5862401199343
attr source packetErrorRate(packetSentToUpper)
attr title "Packet error rate, histogram"
bin	-inf	0
bin	0	1440
bin	0.005	3
bin	0.01	1
bin	0.015	3
bin	0.02	0
bin	0.025	0
bin	0.03	0
bin	0.035	0
bin	0.04	0
bin	0.045	0
bin	0.05	0
bin	0.055	0
bin	0.06	0
bin	0.065	0
bin	0.07	0
bin	0.075	0
bin	0.08	0
bin	0.085	0
bin	0.09	0
bin	0.095	0
bin	0.1	0
bin	0.105	0
bin	0.11	0
bin	0.115	0
bin	0.12	0
bin	0.125	0
bin	0.13	0
bin	0.135	0
bin	0.14	0
bin	0.145	0
bin	0.15	0
bin	0.155	0
bin	0.16	0
bin	0.165	0
bin	0.17	226
bin	0.175	0
bin	0.18	0
bin	0.185	0
bin	0.19	0
bin	0.195	0
bin	0.2	0
bin	0.205	0
bin	0.21	0
bin	0.215	0
statistic EarthquakeDetector.hostS2.wlan[0].radio bitErrorRate:histogram
field count 1673
field mean 3.0534112424327e-06
field stddev 7.5894130178782e-06
field min 4.6822321405732e-29
field max 2.2008899403864e-05
field sum 0.0051083570085899
field sqrsum 1.1190376032672e-07
attr source bitErrorRate(packetSentToUpper)
attr title "Bit error rate, histogram"
bin	-inf	0
bin	0	1440
bin	5e-07	0
bin	1e-06	0
bin	1.5e-06	0
bin	2e-06	0
bin	2.5e-06	0
bin	3e-06	0
bin	3.5e-06	0
bin	4e-06	0
bin	4.5e-06	0
bin	5e-06	0
bin	5.5e-06	0
bin	6e-06	0
bin	6.5e-06	0
bin	7e-06	0
bin	7.5e-06	0
bin	8e-06	0
bin	8.5e-06	0
bin	9e-06	0
bin	9.5e-06	0
bin	1e-05	0
bin	1.05e-05	0
bin	1.1e-05	0
bin	1.15e-05	0
bin	1.2e-05	0
bin	1.25e-05	3
bin	1.3e-05	0
bin	1.35e-05	0
bin	1.4e-05	0
bin	1.45e-05	0
bin	1.5e-05	0
bin	1.55e-05	0
bin	1.6e-05	0
bin	1.65e-05	0
bin	1.7e-05	0
bin	1.75e-05	0
bin	1.8e-05	0
bin	1.85e-05	0
bin	1.9e-05	0
bin	1.95e-05	0
bin	2e-05	0
bin	2.05e-05	0
bin	2.1e-05	0
bin	2.15e-05	0
bin	2.2e-05	230
bin	2.25e-05	0
bin	2.3e-05	0
bin	2.35e-05	0
bin	2.4e-05	0
bin	2.45e-05	0
bin	2.5e-05	0
bin	2.55e-05	0
bin	2.6e-05	0
bin	2.65e-05	0
bin	2.7e-05	0
bin	2.75e-05	0
bin	2.8e-05	0
statistic EarthquakeDetector.hostS2.wlan[0].radio symbolErrorRate:histogram
field count 1673
field mean 3.0534112424327e-06
field stddev 7.5894130178782e-06
field min 4.6822321405732e-29
field max 2.2008899403864e-05
field sum 0.0051083570085899
field sqrsum 1.1190376032672e-07
attr source symbolErrorRate(packetSentToUpper)
attr title "Symbol error rate, histogram"
bin	-inf	0
bin	0	1440
bin	5e-07	0
bin	1e-06	0
bin	1.5e-06	0
bin	2e-06	0
bin	2.5e-06	0
bin	3e-06	0
bin	3.5e-06	0
bin	4e-06	0
bin	4.5e-06	0
bin	5e-06	0
bin	5.5e-06	0
bin	6e-06	0
bin	6.5e-06	0
bin	7e-06	0
bin	7.5e-06	0
bin	8e-06	0
bin	8.5e-06	0
bin	9e-06	0
bin	9.5e-06	0
bin	1e-05	0
bin	1.05e-05	0
bin	1.1e-05	0
bin	1.15e-05	0
bin	1.2e-05	0
bin	1.25e-05	3
bin	1.3e-05	0
bin	1.35e-05	0
bin	1.4e-05	0
bin	1.45e-05	0
bin	1.5e-05	0
bin	1.55e-05	0
bin	1.6e-05	0
bin	1.65e-05	0
bin	1.7e-05	0
bin	1.75e-05	0
bin	1.8e-05	0
bin	1.85e-05	0
bin	1.9e-05	0
bin	1.95e-05	0
bin	2e-05	0
bin	2.05e-05	0
bin	2.1e-05	0
bin	2.15e-05	0
bin	2.2e-05	230
bin	2.25e-05	0
bin	2.3e-05	0
bin	2.35e-05	0
bin	2.4e-05	0
bin	2.45e-05	0
bin	2.5e-05	0
bin	2.55e-05	0
bin	2.6e-05	0
bin	2.65e-05	0
bin	2.7e-05	0
bin	2.75e-05	0
bin	2.8e-05	0
scalar EarthquakeDetector.hostS2.ipv4.ip packetDropAddressResolutionFailed:count 0
attr interpolationmode none
attr source packetDropReasonIsAddressResolutionFailed(packetDropped)
attr title "packet drop: address resolution failed, count"
scalar EarthquakeDetector.hostS2.ipv4.ip packetDropAddressResolutionFailed:sum(packetBytes) 0
attr interpolationmode none
attr source packetDropReasonIsAddressResolutionFailed(packetDropped)
attr title "packet drop: address resolution failed, sum(packetBytes)"
scalar EarthquakeDetector.hostS2.ipv4.ip packetDropHopLimitReached:count 0
attr interpolationmode none
attr source packetDropReasonIsHopLimitReached(packetDropped)
attr title "packet drop: hop limit reached, count"
scalar EarthquakeDetector.hostS2.ipv4.ip packetDropHopLimitReached:sum(packetBytes) 0
attr interpolationmode none
attr source packetDropReasonIsHopLimitReached(packetDropped)
attr title "packet drop: hop limit reached, sum(packetBytes)"
scalar EarthquakeDetector.hostS2.ipv4.ip packetDropForwardingDisabled:count 0
attr interpolationmode none
attr source packetDropReasonIsForwardingDisabled(packetDropped)
attr title "packet drop: forwarding disabled, count"
scalar EarthquakeDetector.hostS2.ipv4.ip packetDropForwardingDisabled:sum(packetBytes) 0
attr interpolationmode none
attr source packetDropReasonIsForwardingDisabled(packetDropped)
attr title "packet drop: forwarding disabled, sum(packetBytes)"
scalar EarthquakeDetector.hostS2.ipv4.ip packetDropNoInterfaceFound:count 0
attr interpolationmode none
attr source packetDropReasonIsNoInterfaceFound(packetDropped)
attr title "packet drop: no interface found, count"
scalar EarthquakeDetector.hostS2.ipv4.ip packetDropNoInterfaceFound:sum(packetBytes) 0
attr interpolationmode none
attr source packetDropReasonIsNoInterfaceFound(packetDropped)
attr title "packet drop: no interface found, sum(packetBytes)"
scalar EarthquakeDetector.hostS2.ipv4.ip packetDropNoRouteFound:count 0
attr interpolationmode none
attr source packetDropReasonIsNoRouteFound(packetDropped)
attr title "packet drop: no route found, count"
scalar EarthquakeDetector.hostS2.ipv4.ip packetDropNoRouteFound:sum(packetBytes) 0
attr interpolationmode none
attr source packetDropReasonIsNoRouteFound(packetDropped)
attr title "packet drop: no route found, sum(packetBytes)"
scalar EarthquakeDetector.hostS2.ipv4.ip packetDropUndefined:count 0
attr interpolationmode none
attr source packetDropReasonIsUndefined(packetDropped)
attr title "packet drop: undefined, count"
scalar EarthquakeDetector.hostS2.ipv4.ip packetDropUndefined:sum(packetBytes) 0
attr interpolationmode none
attr source packetDropReasonIsUndefined(packetDropped)
attr title "packet drop: undefined, sum(packetBytes)"
scalar EarthquakeDetector.hostS2.udp packetReceived:count 304
attr interpolationmode none
attr source packetReceived
attr title "packets received, count"
scalar EarthquakeDetector.hostS2.udp packetReceived:sum(packetBytes) 296672
attr interpolationmode none
attr source packetReceived
attr title "packets received, sum(packetBytes)"
scalar EarthquakeDetector.hostS2.udp packetSent:count 3
attr interpolationmode none
attr source packetSent
attr title "packets sent, count"
scalar EarthquakeDetector.hostS2.udp packetSent:sum(packetBytes) 96
attr interpolationmode none
attr source packetSent
attr title "packets sent, sum(packetBytes)"
scalar EarthquakeDetector.hostS2.udp passedUpPk:count 304
attr interpolationmode none
attr source packetSentToUpper
attr title "packets passed up, count"
scalar EarthquakeDetector.hostS2.udp droppedPkWrongPort:count 0
attr interpolationmode none
attr source packetDropReasonIsNoPortFound(packetDropped)
attr title "packets dropped (wrong port), count"
scalar EarthquakeDetector.hostS2.udp droppedPkBadChecksum:count 0
attr interpolationmode none
attr source packetDropReasonIsIncorrectlyReceived(packetDropped)
attr title "packets dropped (checksum error), count"
scalar EarthquakeDetector.hostS2.app[0] packetReceived:count 294
attr interpolationmode none
attr source packetReceived
attr title "packets received, count"
scalar EarthquakeDetector.hostS2.app[0] packetReceived:sum(packetBytes) 294000
attr interpolationmode none
attr source packetReceived
attr title "packets received, sum(packetBytes)"
statistic EarthquakeDetector.hostS2.app[0] endToEndDelay:histogram
field count 294
field mean 0.039837339925769
field stddev 0.028369813532109
field min 0.008514533963
field max 0.106686898631
field sum 11.712177938176
field sqrsum 0.70240198550927
attr interpolationmode none
attr source dataAge(packetReceived)
attr title "end-to-end delay, histogram"
attr unit s
bin	-inf	0
bin	0	0
bin	0.002	0
bin	0.004	0
bin	0.006	0
bin	0.008	51
bin	0.01	7
bin	0.012	8
bin	0.014	14
bin	0.016	8
bin	0.018	9
bin	0.02	7
bin	0.022	7
bin	0.024	6
bin	0.026	6
bin	0.028	11
bin	0.03	7
bin	0.032	6
bin	0.034	9
bin	0.036	10
bin	0.038	5
bin	0.04	13
bin	0.042	3
bin	0.044	4
bin	0.046	9
bin	0.048	8
bin	0.05	10
bin	0.052	2
bin	0.054	2
bin	0.056	3
bin	0.058	2
bin	0.06	2
bin	0.062	3
bin	0.064	4
bin	0.066	1
bin	0.068	2
bin	0.07	3
bin	0.072	0
bin	0.074	4
bin	0.076	4
bin	0.078	5
bin	0.08	2
bin	0.082	2
bin	0.084	4
bin	0.086	3
bin	0.088	2
bin	0.09	3
bin	0.092	1
bin	0.094	3
bin	0.096	6
bin	0.098	6
bin	0.1	2
bin	0.102	2
bin	0.104	2
bin	0.106	1
bin	0.108	0
bin	0.11	0
bin	0.112	0
bin	0.114	0
bin	0.116	0
bin	0.118	0
bin	0.12	0
bin	0.122	0
bin	0.124	0
scalar EarthquakeDetector.hostS3.energyStorage residualEnergyCapacity:last -0.050762433776534
attr interpolationmode linear
attr source residualEnergyCapacityChanged
attr title "Residual energy capacity, last"
scalar EarthquakeDetector.hostS3.lo[0].lo rcvdPkFromHl:count 0
attr interpolationmode none
attr source packetReceivedFromUpper
attr title "packets received from higher layer, count"
scalar EarthquakeDetector.hostS3.lo[0].lo rcvdPkFromHl:sum(packetBytes) 0
attr interpolationmode none
attr source packetReceivedFromUpper
attr title "packets received from higher layer, sum(packetBytes)"
scalar EarthquakeDetector.hostS3.lo[0].lo passedUpPk:count 0
attr interpolationmode none
attr source packetSentToUpper
attr title "packets passed to higher layer, count"
scalar EarthquakeDetector.hostS3.lo[0].lo passedUpPk:sum(packetBytes) 0
attr interpolationmode none
attr source packetSentToUpper
attr title "packets passed to higher layer, sum(packetBytes)"
scalar EarthquakeDetector.hostS3.wlan[0].mac.queue packetPopped:count 2
attr interpolationmode none
attr title "packet popped, count"
scalar EarthquakeDetector.hostS3.wlan[0].mac.queue packetPopped:sum(packetBytes) 150
attr interpolationmode none
attr title "packet popped, sum(packetBytes)"
statistic EarthquakeDetector.hostS3.wlan[0].mac.queue queueingTime:histogram
field count 2
field mean 0
field stddev 0
field min 0
field max 0
field sum 0
field sqrsum 0
attr interpolationmode none
attr source queueingTime(packetPopped)
attr title "queueing times, histogram"
attr unit s
bin	-inf	0
bin	-0.5	0
bin	-0.48	0
bin	-0.46	0
bin	-0.44	0
bin	-0.42	0
bin	-0.4	0
bin	-0.38	0
bin	-0.36	0
bin	-0.34	0
bin	-0.32	0
bin	-0.3	0
bin	-0.28	0
bin	-0.26	0
bin	-0.24	0
bin	-0.22	0
bin	-0.2	0
bin	-0.18	0
bin	-0.16	0
bin	-0.14	0
bin	-0.12	0
bin	-0.1	0
bin	-0.08	0
bin	-0.06	0
bin	-0.04	0
bin	-0.02	0
bin	0	2
bin	0.02	0
bin	0.04	0
bin	0.06	0
bin	0.08	0
bin	0.1	0
bin	0.12	0
bin	0.14	0
bin	0.16	0
bin	0.18	0
bin	0.2	0
bin	0.22	0
bin	0.24	0
bin	0.26	0
bin	0.28	0
bin	0.3	0
bin	0.32	0
bin	0.34	0
bin	0.36	0
bin	0.38	0
bin	0.4	0
bin	0.42	0
bin	0.44	0
bin	0.46	0
bin	0.48	0
bin	0.5	0
scalar EarthquakeDetector.hostS3.wlan[0].mac.queue queueLength:max 1
attr interpolationmode sample-hold
attr source "count(packetPushed) - count(packetPopped) - count(packetRemoved) - count(packetDropped)"
attr title "queue length, max"
scalar EarthquakeDetector.hostS3.wlan[0].mac.queue queueLength:timeavg 0
attr interpolationmode sample-hold
attr source "count(packetPushed) - count(packetPopped) - count(packetRemoved) - count(packetDropped)"
attr title "queue length, timeavg"
scalar EarthquakeDetector.hostS3.wlan[0].mac.queue packetPushed:count 2
attr interpolationmode none
attr title "packet pushed, count"
scalar EarthquakeDetector.hostS3.wlan[0].mac.queue packetPushed:sum(packetBytes) 150
attr interpolationmode none
attr title "packet pushed, sum(packetBytes)"
scalar EarthquakeDetector.hostS3.wlan[0].mac.queue packetDropQueueOverflow:count 0
attr interpolationmode none
attr source packetDropReasonIsQueueOverflow(packetDropped)
attr title "packet drops: queue overflow, count"
scalar EarthquakeDetector.hostS3.wlan[0].mac.queue packetDropQueueOverflow:sum(packetBytes) 0
attr interpolationmode none
attr source packetDropReasonIsQueueOverflow(packetDropped)
attr title "packet drops: queue overflow, sum(packetBytes)"
scalar EarthquakeDetector.hostS3.wlan[0].mac.queue packetRemoved:count 0
attr interpolationmode none
attr title "packets removed, count"
scalar EarthquakeDetector.hostS3.wlan[0].mac.queue packetRemoved:sum(packetBytes) 0
attr interpolationmode none
attr title "packets removed, sum(packetBytes)"
scalar EarthquakeDetector.hostS3.wlan[0].mac numRetry 0
scalar EarthquakeDetector.hostS3.wlan[0].mac numSentWithoutRetry 0
scalar EarthquakeDetector.hostS3.wlan[0].mac numGivenUp 0
scalar EarthquakeDetector.hostS3.wlan[0].mac numCollision 47
scalar EarthquakeDetector.hostS3.wlan[0].mac numSent 2
scalar EarthquakeDetector.hostS3.wlan[0].mac numReceived 195
scalar EarthquakeDetector.hostS3.wlan[0].mac numSentBroadcast 0
scalar EarthquakeDetector.hostS3.wlan[0].mac numReceivedBroadcast 6
scalar EarthquakeDetector.hostS3.wlan[0].mac packetDropIncorrectlyReceived:count 47
attr interpolationmode none
attr source packetDropReasonIsIncorrectlyReceived(packetDropped)
attr title "packet drop: incorrectly received, count"
scalar EarthquakeDetector.hostS3.wlan[0].mac packetDropIncorrectlyReceived:sum(packetBytes) 49585
attr interpolationmode none
attr source packetDropReasonIsIncorrectlyReceived(packetDropped)
attr title "packet drop: incorrectly received, sum(packetBytes)"
scalar EarthquakeDetector.hostS3.wlan[0].mac packetDropNotAddressedToUs:count 1
attr interpolationmode none
attr source packetDropReasonIsNotAddressedToUs(packetDropped)
attr title "packet drop: not addressed to us, count"
scalar EarthquakeDetector.hostS3.wlan[0].mac packetDropNotAddressedToUs:sum(packetBytes) 75
attr interpolationmode none
attr source packetDropReasonIsNotAddressedToUs(packetDropped)
attr title "packet drop: not addressed to us, sum(packetBytes)"
scalar EarthquakeDetector.hostS3.wlan[0].mac packetDropQueueOverflow:count 0
attr interpolationmode none
attr source packetDropReasonIsQueueOverflow(packetDropped)
attr title "packet drop: queue overflow, count"
scalar EarthquakeDetector.hostS3.wlan[0].mac packetDropQueueOverflow:sum(packetBytes) 0
attr interpolationmode none
attr source packetDropReasonIsQueueOverflow(packetDropped)
attr title "packet drop: queue overflow, sum(packetBytes)"
scalar EarthquakeDetector.hostS3.wlan[0].mac packetDropRetryLimitReached:count 0
attr interpolationmode none
attr source packetDropReasonIsRetryLimitReached(packetDropped)
attr title "packet drop: retry limit reached, count"
scalar EarthquakeDetector.hostS3.wlan[0].mac packetDropRetryLimitReached:sum(packetBytes) 0
attr interpolationmode none
attr source packetDropReasonIsRetryLimitReached(packetDropped)
attr title "packet drop: retry limit reached, sum(packetBytes)"
scalar EarthquakeDetector.hostS3.wlan[0].mac linkBroken:count 0
attr interpolationmode none
attr source linkBroken
attr title "link break, count"
scalar EarthquakeDetector.hostS3.wlan[0].radio radioMode:count 7
attr interpolationmode sample-hold
attr source radioModeChanged
attr title "Radio mode, count"
scalar EarthquakeDetector.hostS3.wlan[0].radio receptionState:count 503
attr interpolationmode sample-hold
attr source receptionStateChanged
attr title "Radio reception state, count"
scalar EarthquakeDetector.hostS3.wlan[0].radio transmissionState:count 8
attr interpolationmode sample-hold
attr source transmissionStateChanged
attr title "Radio transmission state, count"
statistic EarthquakeDetector.hostS3.wlan[0].radio minSnir:histogram
field count 249
field mean 4.3610358349857
field stddev 1.7112321828129
field min 4.1724417011521
field max 19.825754809335
field sum 1085.8979229114
field sqrsum 5461.86201966
attr source minimumSnir(packetSentToUpper)
attr title "Min SNIR, histogram"
bin	-inf	0
bin	0	0
bin	0.5	0
bin	1	0
bin	1.5	0
bin	2	0
bin	2.5	0
bin	3	0
bin	3.5	0
bin	4	246
bin	4.5	0
bin	5	0
bin	5.5	0
bin	6	0
bin	6.5	0
bin	7	0
bin	7.5	0
bin	8	0
bin	8.5	0
bin	9	0
bin	9.5	0
bin	10	0
bin	10.5	0
bin	11	0
bin	11.5	0
bin	12	0
bin	12.5	0
bin	13	0
bin	13.5	0
bin	14	0
bin	14.5	0
bin	15	0
bin	15.5	0
bin	16	0
bin	16.5	0
bin	17	0
bin	17.5	0
bin	18	0
bin	18.5	0
bin	19	0
bin	19.5	3
bin	20	0
bin	20.5	0
bin	21	0
bin	21.5	0
bin	22	0
bin	22.5	0
bin	23	0
bin	23.5	0
bin	24	0
statistic EarthquakeDetector.hostS3.wlan[0].radio packetErrorRate:histogram
field count 249
field mean 0.16613652210654
field stddev 0.026878250059093
field min 0
field max 0.17069372438854
field sum 41.367994004529
field sqrsum 7.0518998513441
attr source packetErrorRate(packetSentToUpper)
attr title "Packet error rate, histogram"
bin	-inf	0
bin	0	3
bin	0.005	0
bin	0.01	1
bin	0.015	3
bin	0.02	0
bin	0.025	0
bin	0.03	0
bin	0.035	0
bin	0.04	0
bin	0.045	0
bin	0.05	0
bin	0.055	0
bin	0.06	0
bin	0.065	0
bin	0.07	0
bin	0.075	0
bin	0.08	0
bin	0.085	0
bin	0.09	0
bin	0.095	0
bin	0.1	0
bin	0.105	0
bin	0.11	0
bin	0.115	0
bin	0.12	0
bin	0.125	0
bin	0.13	0
bin	0.135	0
bin	0.14	0
bin	0.145	0
bin	0.15	0
bin	0.155	0
bin	0.16	0
bin	0.165	0
bin	0.17	242
bin	0.175	0
bin	0.18	0
bin	0.185	0
bin	0.19	0
bin	0.195	0
bin	0.2	0
bin	0.205	0
bin	0.21	0
bin	0.215	0
statistic EarthquakeDetector.hostS3.wlan[0].radio bitErrorRate:histogram
field count 249
field mean 2.1743731941167e-05
field stddev 2.406029746412e-06
field min 2.6639112802048e-19
field max 2.2008899403864e-05
field sum 0.0054141892533505
field sqrsum 1.1916034663047e-07
attr source bitErrorRate(packetSentToUpper)
attr title "Bit error rate, histogram"
bin	-inf	0
bin	0	3
bin	5e-07	0
bin	1e-06	0
bin	1.5e-06	0
bin	2e-06	0
bin	2.5e-06	0
bin	3e-06	0
bin	3.5e-06	0
bin	4e-06	0
bin	4.5e-06	0
bin	5e-06	0
bin	5.5e-06	0
bin	6e-06	0
bin	6.5e-06	0
bin	7e-06	0
bin	7.5e-06	0
bin	8e-06	0
bin	8.5e-06	0
bin	9e-06	0
bin	9.5e-06	0
bin	1e-05	0
bin	1.05e-05	0
bin	1.1e-05	0
bin	1.15e-05	0
bin	1.2e-05	0
bin	1.25e-05	0
bin	1.3e-05	0
bin	1.35e-05	0
bin	1.4e-05	0
bin	1.45e-05	0
bin	1.5e-05	0
bin	1.55e-05	0
bin	1.6e-05	0
bin	1.65e-05	0
bin	1.7e-05	0
bin	1.75e-05	0
bin	1.8e-05	0
bin	1.85e-05	0
bin	1.9e-05	0
bin	1.95e-05	0
bin	2e-05	0
bin	2.05e-05	0
bin	2.1e-05	0
bin	2.15e-05	0
bin	2.2e-05	246
bin	2.25e-05	0
bin	2.3e-05	0
bin	2.35e-05	0
bin	2.4e-05	0
bin	2.45e-05	0
bin	2.5e-05	0
bin	2.55e-05	0
bin	2.6e-05	0
bin	2.65e-05	0
bin	2.7e-05	0
bin	2.75e-05	0
bin	2.8e-05	0
statistic EarthquakeDetector.hostS3.wlan[0].radio symbolErrorRate:histogram
field count 249
field mean 2.1743731941167e-05
field stddev 2.406029746412e-06
field min 2.6639112802048e-19
field max 2.2008899403864e-05
field sum 0.0054141892533505
field sqrsum 1.1916034663047e-07
attr source symbolErrorRate(packetSentToUpper)
attr title "Symbol error rate, histogram"
bin	-inf	0
bin	0	3
bin	5e-07	0
bin	1e-06	0
bin	1.5e-06	0
bin	2e-06	0
bin	2.5e-06	0
bin	3e-06	0
bin	3.5e-06	0
bin	4e-06	0
bin	4.5e-06	0
bin	5e-06	0
bin	5.5e-06	0
bin	6e-06	0
bin	6.5e-06	0
bin	7e-06	0
bin	7.5e-06	0
bin	8e-06	0
bin	8.5e-06	0
bin	9e-06	0
bin	9.5e-06	0
bin	1e-05	0
bin	1.05e-05	0
bin	1.1e-05	0
bin	1.15e-05	0
bin	1.2e-05	0
bin	1.25e-05	0
bin	1.3e-05	0
bin	1.35e-05	0
bin	1.4e-05	0
bin	1.45e-05	0
bin	1.5e-05	0
bin	1.55e-05	0
bin	1.6e-05	0
bin	1.65e-05	0
bin	1.7e-05	0
bin	1.75e-05	0
bin	1.8e-05	0
bin	1.85e-05	0
bin	1.9e-05	0
bin	1.95e-05	0
bin	2e-05	0
bin	2.05e-05	0
bin	2.1e-05	0
bin	2.15e-05	0
bin	2.2e-05	246
bin	2.25e-05	0
bin	2.3e-05	0
bin	2.35e-05	0
bin	2.4e-05	0
bin	2.45e-05	0
bin	2.5e-05	0
bin	2.55e-05	0
bin	2.6e-05	0
bin	2.65e-05	0
bin	2.7e-05	0
bin	2.75e-05	0
bin	2.8e-05	0
scalar EarthquakeDetector.hostS3.ipv4.ip packetDropAddressResolutionFailed:count 0
attr interpolationmode none
attr source packetDropReasonIsAddressResolutionFailed(packetDropped)
attr title "packet drop: address resolution failed, count"
scalar EarthquakeDetector.hostS3.ipv4.ip packetDropAddressResolutionFailed:sum(packetBytes) 0
attr interpolationmode none
attr source packetDropReasonIsAddressResolutionFailed(packetDropped)
attr title "packet drop: address resolution failed, sum(packetBytes)"
scalar EarthquakeDetector.hostS3.ipv4.ip packetDropHopLimitReached:count 0
attr interpolationmode none
attr source packetDropReasonIsHopLimitReached(packetDropped)
attr title "packet drop: hop limit reached, count"
scalar EarthquakeDetector.hostS3.ipv4.ip packetDropHopLimitReached:sum(packetBytes) 0
attr interpolationmode none
attr source packetDropReasonIsHopLimitReached(packetDropped)
attr title "packet drop: hop limit reached, sum(packetBytes)"
scalar EarthquakeDetector.hostS3.ipv4.ip packetDropForwardingDisabled:count 0
attr interpolationmode none
attr source packetDropReasonIsForwardingDisabled(packetDropped)
attr title "packet drop: forwarding disabled, count"
scalar EarthquakeDetector.hostS3.ipv4.ip packetDropForwardingDisabled:sum(packetBytes) 0
attr interpolationmode none
attr source packetDropReasonIsForwardingDisabled(packetDropped)
attr title "packet drop: forwarding disabled, sum(packetBytes)"
scalar EarthquakeDetector.hostS3.ipv4.ip packetDropNoInterfaceFound:count 0
attr interpolationmode none
attr source packetDropReasonIsNoInterfaceFound(packetDropped)
attr title "packet drop: no interface found, count"
scalar EarthquakeDetector.hostS3.ipv4.ip packetDropNoInterfaceFound:sum(packetBytes) 0
attr interpolationmode none
attr source packetDropReasonIsNoInterfaceFound(packetDropped)
attr title "packet drop: no interface found, sum(packetBytes)"
scalar EarthquakeDetector.hostS3.ipv4.ip packetDropNoRouteFound:count 0
attr interpolationmode none
attr source packetDropReasonIsNoRouteFound(packetDropped)
attr title "packet drop: no route found, count"
scalar EarthquakeDetector.hostS3.ipv4.ip packetDropNoRouteFound:sum(packetBytes) 0
attr interpolationmode none
attr source packetDropReasonIsNoRouteFound(packetDropped)
attr title "packet drop: no route found, sum(packetBytes)"
scalar EarthquakeDetector.hostS3.ipv4.ip packetDropUndefined:count 0
attr interpolationmode none
attr source packetDropReasonIsUndefined(packetDropped)
attr title "packet drop: undefined, count"
scalar EarthquakeDetector.hostS3.ipv4.ip packetDropUndefined:sum(packetBytes) 0
attr interpolationmode none
attr source packetDropReasonIsUndefined(packetDropped)
attr title "packet drop: undefined, sum(packetBytes)"
scalar EarthquakeDetector.hostS3.udp packetReceived:count 201
attr interpolationmode none
attr source packetReceived
attr title "packets received, count"
scalar EarthquakeDetector.hostS3.udp packetReceived:sum(packetBytes) 196752
attr interpolationmode none
attr source packetReceived
attr title "packets received, sum(packetBytes)"
scalar EarthquakeDetector.hostS3.udp packetSent:count 2
attr interpolationmode none
attr source packetSent
attr title "packets sent, count"
scalar EarthquakeDetector.hostS3.udp packetSent:sum(packetBytes) 56
attr interpolationmode none
attr source packetSent
attr title "packets sent, sum(packetBytes)"
scalar EarthquakeDetector.hostS3.udp passedUpPk:count 201
attr interpolationmode none
attr source packetSentToUpper
attr title "packets passed up, count"
scalar EarthquakeDetector.hostS3.udp droppedPkWrongPort:count 0
attr interpolationmode none
attr source packetDropReasonIsNoPortFound(packetDropped)
attr title "packets dropped (wrong port), count"
scalar EarthquakeDetector.hostS3.udp droppedPkBadChecksum:count 0
attr interpolationmode none
attr source packetDropReasonIsIncorrectlyReceived(packetDropped)
attr title "packets dropped (checksum error), count"
scalar EarthquakeDetector.hostS3.app[0] packetReceived:count 195
attr interpolationmode none
attr source packetReceived
attr title "packets received, count"
scalar EarthquakeDetector.hostS3.app[0] packetReceived:sum(packetBytes) 195000
attr interpolationmode none
attr source packetReceived
attr title "packets received, sum(packetBytes)"
statistic EarthquakeDetector.hostS3.app[0] endToEndDelay:histogram
field count 195
field mean 0.055653842513133
field stddev 0.043422145873829
field min 0.017129751211
field max 0.361664402555
field sum 10.852499290061
field sqrsum 0.96976694030684
attr interpolationmode none
attr source dataAge(packetReceived)
attr title "end-to-end delay, histogram"
attr unit s
bin	-inf	0
bin	0	0
bin	0.005	0
bin	0.01	0
bin	0.015	24
bin	0.02	13
bin	0.025	18
bin	0.03	17
bin	0.035	11
bin	0.04	15
bin	0.045	13
bin	0.05	9
bin	0.055	6
bin	0.06	8
bin	0.065	12
bin	0.07	6
bin	0.075	9
bin	0.08	6
bin	0.085	4
bin	0.09	7
bin	0.095	0
bin	0.1	2
bin	0.105	3
bin	0.11	0
bin	0.115	1
bin	0.12	1
bin	0.125	3
bin	0.13	0
bin	0.135	0
bin	0.14	1
bin	0.145	0
bin	0.15	1
bin	0.155	0
bin	0.16	0
bin	0.165	1
bin	0.17	0
bin	0.175	0
bin	0.18	0
bin	0.185	0
bin	0.19	0
bin	0.195	0
bin	0.2	1
bin	0.205	0
bin	0.21	0
bin	0.215	0
bin	0.22	0
bin	0.225	0
bin	0.23	1
bin	0.235	0
bin	0.24	0
bin	0.245	0
bin	0.25	0
bin	0.255	0
bin	0.26	0
bin	0.265	0
bin	0.27	1
bin	0.275	0
bin	0.28	0
bin	0.285	0
bin	0.29	0
bin	0.295	0
bin	0.3	0
bin	0.305	0
bin	0.31	0
bin	0.315	0
bin	0.32	0
bin	0.325	0
bin	0.33	0
bin	0.335	0
bin	0.34	0
bin	0.345	0
bin	0.35	0
bin	0.355	0
bin	0.36	1
bin	0.365	0
bin	0.37	0
bin	0.375	0
bin	0.38	0
bin	0.385	0
bin	0.39	0
bin	0.395	0
bin	0.4	0
bin	0.405	0
bin	0.41	0
bin	0.415	0
bin	0.42	0
bin	0.425	0
bin	0.43	0
bin	0.435	0
bin	0.44	0
bin	0.445	0
bin	0.45	0
scalar EarthquakeDetector.hostS4.energyStorage residualEnergyCapacity:last -0.14748957403269
attr interpolationmode linear
attr source residualEnergyCapacityChanged
attr title "Residual energy capacity, last"
scalar EarthquakeDetector.hostS4.lo[0].lo rcvdPkFromHl:count 0
attr interpolationmode none
attr source packetReceivedFromUpper
attr title "packets received from higher layer, count"
scalar EarthquakeDetector.hostS4.lo[0].lo rcvdPkFromHl:sum(packetBytes) 0
attr interpolationmode none
attr source packetReceivedFromUpper
attr title "packets received from higher layer, sum(packetBytes)"
scalar EarthquakeDetector.hostS4.lo[0].lo passedUpPk:count 0
attr interpolationmode none
attr source packetSentToUpper
attr title "packets passed to higher layer, count"
scalar EarthquakeDetector.hostS4.lo[0].lo passedUpPk:sum(packetBytes) 0
attr interpolationmode none
attr source packetSentToUpper
attr title "packets passed to higher layer, sum(packetBytes)"
scalar EarthquakeDetector.hostS4.wlan[0].mac.queue packetPopped:count 3
attr interpolationmode none
attr title "packet popped, count"
scalar EarthquakeDetector.hostS4.wlan[0].mac.queue packetPopped:sum(packetBytes) 237
attr interpolationmode none
attr title "packet popped, sum(packetBytes)"
statistic EarthquakeDetector.hostS4.wlan[0].mac.queue queueingTime:histogram
field count 3
field mean 0.0045739613216667
field stddev 0.0040876268504451
field min 5.582311e-05
field max 0.008015618096
field sum 0.013721883965
field sqrsum 9.6180753053268e-05
attr interpolationmode none
attr source queueingTime(packetPopped)
attr title "queueing times, histogram"
attr unit s
bin	-inf	0
bin	0	1
bin	0.0002	0
bin	0.0004	0
bin	0.0006	0
bin	0.0008	0
bin	0.001	0
bin	0.0012	0
bin	0.0014	0
bin	0.0016	0
bin	0.0018	0
bin	0.002	0
bin	0.0022	0
bin	0.0024	0
bin	0.0026	0
bin	0.0028	0
bin	0.003	0
bin	0.0032	0
bin	0.0034	0
bin	0.0036	0
bin	0.0038	0
bin	0.004	0
bin	0.0042	0
bin	0.0044	0
bin	0.0046	0
bin	0.0048	0
bin	0.005	0
bin	0.0052	0
bin	0.0054	0
bin	0.0056	1
bin	0.0058	0
bin	0.006	0
bin	0.0062	0
bin	0.0064	0
bin	0.0066	0
bin	0.0068	0
bin	0.007	0
bin	0.0072	0
bin	0.0074	0
bin	0.0076	0
bin	0.0078	0
bin	0.008	1
bin	0.0082	0
bin	0.0084	0
bin	0.0086	0
bin	0.0088	0
bin	0.009	0
bin	0.0092	0
bin	0.0094	0
bin	0.0096	0
bin	0.0098	0
bin	0.01	0
bin	0.0102	0
scalar EarthquakeDetector.hostS4.wlan[0].mac.queue queueLength:max 1
attr interpolationmode sample-hold
attr source "count(packetPushed) - count(packetPopped) - count(packetRemoved) - count(packetDropped)"
attr title "queue length, max"
scalar EarthquakeDetector.hostS4.wlan[0].mac.queue queueLength:timeavg 0.00080439705889029
attr interpolationmode sample-hold
attr source "count(packetPushed) - count(packetPopped) - count(packetRemoved) - count(packetDropped)"
attr title "queue length, timeavg"
scalar EarthquakeDetector.hostS4.wlan[0].mac.queue packetPushed:count 3
attr interpolationmode none
attr title "packet pushed, count"
scalar EarthquakeDetector.hostS4.wlan[0].mac.queue packetPushed:sum(packetBytes) 237
attr interpolationmode none
attr title "packet pushed, sum(packetBytes)"
scalar EarthquakeDetector.hostS4.wlan[0].mac.queue packetDropQueueOverflow:count 0
attr interpolationmode none
attr source packetDropReasonIsQueueOverflow(packetDropped)
attr title "packet drops: queue overflow, count"
scalar EarthquakeDetector.hostS4.wlan[0].mac.queue packetDropQueueOverflow:sum(packetBytes) 0
attr interpolationmode none
attr source packetDropReasonIsQueueOverflow(packetDropped)
attr title "packet drops: queue overflow, sum(packetBytes)"
scalar EarthquakeDetector.hostS4.wlan[0].mac.queue packetRemoved:count 0
attr interpolationmode none
attr title "packets removed, count"
scalar EarthquakeDetector.hostS4.wlan[0].mac.queue packetRemoved:sum(packetBytes) 0
attr interpolationmode none
attr title "packets removed, sum(packetBytes)"
scalar EarthquakeDetector.hostS4.wlan[0].mac numRetry 0
scalar EarthquakeDetector.hostS4.wlan[0].mac numSentWithoutRetry 0
scalar EarthquakeDetector.hostS4.wlan[0].mac numGivenUp 0
scalar EarthquakeDetector.hostS4.wlan[0].mac numCollision 17
scalar EarthquakeDetector.hostS4.wlan[0].mac numSent 0
scalar EarthquakeDetector.hostS4.wlan[0].mac numReceived 310
scalar EarthquakeDetector.hostS4.wlan[0].mac numSentBroadcast 3
scalar EarthquakeDetector.hostS4.wlan[0].mac numReceivedBroadcast 10
scalar EarthquakeDetector.hostS4.wlan[0].mac packetDropIncorrectlyReceived:count 17
attr interpolationmode none
attr source packetDropReasonIsIncorrectlyReceived(packetDropped)
attr title "packet drop: incorrectly received, count"
scalar EarthquakeDetector.hostS4.wlan[0].mac packetDropIncorrectlyReceived:sum(packetBytes) 17935
attr interpolationmode none
attr source packetDropReasonIsIncorrectlyReceived(packetDropped)
attr title "packet drop: incorrectly received, sum(packetBytes)"
scalar EarthquakeDetector.hostS4.wlan[0].mac packetDropNotAddressedToUs:count 1336
attr interpolationmode none
attr source packetDropReasonIsNotAddressedToUs(packetDropped)
attr title "packet drop: not addressed to us, count"
scalar EarthquakeDetector.hostS4.wlan[0].mac packetDropNotAddressedToUs:sum(packetBytes) 1406540
attr interpolationmode none
attr source packetDropReasonIsNotAddressedToUs(packetDropped)
attr title "packet drop: not addressed to us, sum(packetBytes)"
scalar EarthquakeDetector.hostS4.wlan[0].mac packetDropQueueOverflow:count 0
attr interpolationmode none
attr source packetDropReasonIsQueueOverflow(packetDropped)
attr title "packet drop: queue overflow, count"
scalar EarthquakeDetector.hostS4.wlan[0].mac packetDropQueueOverflow:sum(packetBytes) 0
attr interpolationmode none
attr source packetDropReasonIsQueueOverflow(packetDropped)
attr title "packet drop: queue overflow, sum(packetBytes)"
scalar EarthquakeDetector.hostS4.wlan[0].mac packetDropRetryLimitReached:count 0
attr interpolationmode none
attr source packetDropReasonIsRetryLimitReached(packetDropped)
attr title "packet drop: retry limit reached, count"
scalar EarthquakeDetector.hostS4.wlan[0].mac packetDropRetryLimitReached:sum(packetBytes) 0
attr interpolationmode none
attr source packetDropReasonIsRetryLimitReached(packetDropped)
attr title "packet drop: retry limit reached, sum(packetBytes)"
scalar EarthquakeDetector.hostS4.wlan[0].mac linkBroken:count 0
attr interpolationmode none
attr source linkBroken
attr title "link break, count"
scalar EarthquakeDetector.hostS4.wlan[0].radio radioMode:count 9
attr interpolationmode sample-hold
attr source radioModeChanged
attr title "Radio mode, count"
scalar EarthquakeDetector.hostS4.wlan[0].radio receptionState:count 3370
attr interpolationmode sample-hold
attr source receptionStateChanged
attr title "Radio reception state, count"
scalar EarthquakeDetector.hostS4.wlan[0].radio transmissionState:count 12
attr interpolationmode sample-hold
attr source transmissionStateChanged
attr title "Radio transmission state, count"
statistic EarthquakeDetector.hostS4.wlan[0].radio minSnir:histogram
field count 1673
field mean 30.566254929436
field stddev 3.2776158616593
field min 0.96869866552033
field max 30.947519702377
field sum 51137.344496947
field sqrsum 1581039.0126197
attr source minimumSnir(packetSentToUpper)
attr title "Min SNIR, histogram"
bin	-inf	0
bin	0	0
bin	0.5	16
bin	1	1
bin	1.5	0
bin	2	0
bin	2.5	0
bin	3	0
bin	3.5	0
bin	4	3
bin	4.5	0
bin	5	0
bin	5.5	0
bin	6	0
bin	6.5	0
bin	7	0
bin	7.5	0
bin	8	0
bin	8.5	0
bin	9	0
bin	9.5	0
bin	10	0
bin	10.5	0
bin	11	0
bin	11.5	2
bin	12	0
bin	12.5	0
bin	13	0
bin	13.5	0
bin	14	0
bin	14.5	0
bin	15	0
bin	15.5	0
bin	16	0
bin	16.5	0
bin	17	0
bin	17.5	0
bin	18	0
bin	18.5	0
bin	19	0
bin	19.5	1
bin	20	0
bin	20.5	0
bin	21	0
bin	21.5	0
bin	22	0
bin	22.5	0
bin	23	0
bin	23.5	0
bin	24	0
bin	24.5	0
bin	25	0
bin	25.5	0
bin	26	0
bin	26.5	0
bin	27	0
bin	27.5	0
bin	28	0
bin	28.5	0
bin	29	0
bin	29.5	0
bin	30	0
bin	30.5	1650
bin	31	0
bin	31.5	0
bin	32	0
bin	32.5	0
bin	33	0
bin	33.5	0
bin	34	0
bin	34.5	0
bin	35	0
bin	35.5	0
bin	36	0
bin	36.5	0
bin	37	0
bin	37.5	0
bin	38	0
bin	38.5	0
statistic EarthquakeDetector.hostS4.wlan[0].radio packetErrorRate:histogram
field count 1673
field mean 0.010177261657792
field stddev 0.10031932084931
field min 0
field max 1
field sum 17.026558753485
field sqrsum 17.000235122401
attr source packetErrorRate(packetSentToUpper)
attr title "Packet error rate, histogram"
bin	-inf	0
bin	0	1656
bin	0.02	0
bin	0.04	0
bin	0.06	0
bin	0.08	0
bin	0.1	0
bin	0.12	0
bin	0.14	0
bin	0.16	0
bin	0.18	0
bin	0.2	0
bin	0.22	0
bin	0.24	0
bin	0.26	0
bin	0.28	0
bin	0.3	0
bin	0.32	0
bin	0.34	0
bin	0.36	0
bin	0.38	0
bin	0.4	0
bin	0.42	0
bin	0.44	0
bin	0.46	0
bin	0.48	0
bin	0.5	0
bin	0.52	0
bin	0.54	0
bin	0.56	0
bin	0.58	0
bin	0.6	0
bin	0.62	0
bin	0.64	0
bin	0.66	0
bin	0.68	0
bin	0.7	0
bin	0.72	0
bin	0.74	0
bin	0.76	0
bin	0.78	0
bin	0.8	0
bin	0.82	0
bin	0.84	0
bin	0.86	0
bin	0.88	0
bin	0.9	0
bin	0.92	0
bin	0.94	0
bin	0.96	0
bin	0.98	0
bin	1	17
bin	1.02	0
bin	1.04	0
bin	1.06	0
bin	1.08	0
bin	1.1	0
bin	1.12	0
bin	1.14	0
bin	1.16	0
bin	1.18	0
bin	1.2	0
bin	1.22	0
bin	1.24	0
bin	1.26	0
[...]
attr source packetDropReasonIsUndefined(packetDropped)
attr title "packet drop: undefined, count"
scalar EarthquakeDetector.hostS4.ipv4.ip packetDropUndefined:sum(packetBytes) 0
attr interpolationmode none
attr source packetDropReasonIsUndefined(packetDropped)
attr title "packet drop: undefined, sum(packetBytes)"
scalar EarthquakeDetector.hostS4.udp packetReceived:count 320
attr interpolationmode none
attr source packetReceived
attr title "packets received, count"
scalar EarthquakeDetector.hostS4.udp packetReceived:sum(packetBytes) 312800
attr interpolationmode none
attr source packetReceived
attr title "packets received, sum(packetBytes)"
scalar EarthquakeDetector.hostS4.udp packetSent:count 3
attr interpolationmode none
attr source packetSent
attr title "packets sent, count"
scalar EarthquakeDetector.hostS4.udp packetSent:sum(packetBytes) 96
attr interpolationmode none
attr source packetSent
attr title "packets sent, sum(packetBytes)"
scalar EarthquakeDetector.hostS4.udp passedUpPk:count 320
attr interpolationmode none
attr source packetSentToUpper
attr title "packets passed up, count"
scalar EarthquakeDetector.hostS4.udp droppedPkWrongPort:count 0
attr interpolationmode none
attr source packetDropReasonIsNoPortFound(packetDropped)
attr title "packets dropped (wrong port), count"
scalar EarthquakeDetector.hostS4.udp droppedPkBadChecksum:count 0
attr interpolationmode none
attr source packetDropReasonIsIncorrectlyReceived(packetDropped)
attr title "packets dropped (checksum error), count"
scalar EarthquakeDetector.hostS4.app[0] packetReceived:count 310
attr interpolationmode none
attr source packetReceived
attr title "packets received, count"
scalar EarthquakeDetector.hostS4.app[0] packetReceived:sum(packetBytes) 310000
attr interpolationmode none
attr source packetReceived
attr title "packets received, sum(packetBytes)"
statistic EarthquakeDetector.hostS4.app[0] endToEndDelay:histogram
field count 310
field mean 0.038891309717277
field stddev 0.027175848860385
field min 0.008534533963
field max 0.11329189832
field sum 12.056306012356
field sqrsum 0.69709030040911
attr interpolationmode none
attr source dataAge(packetReceived)
attr title "end-to-end delay, histogram"
attr unit s
bin	-inf	0
bin	0	0
bin	0.002	0
bin	0.004	0
bin	0.006	0
bin	0.008	38
bin	0.01	9
bin	0.012	18
bin	0.014	10
bin	0.016	16
bin	0.018	18
bin	0.02	10
bin	0.022	3
bin	0.024	7
bin	0.026	7
bin	0.028	15
bin	0.03	2
bin	0.032	8
bin	0.034	7
bin	0.036	15
bin	0.038	4
bin	0.04	9
bin	0.042	3
bin	0.044	3
bin	0.046	6
bin	0.048	3
bin	0.05	8
bin	0.052	7
bin	0.054	6
bin	0.056	3
bin	0.058	2
bin	0.06	12
bin	0.062	7
bin	0.064	2
bin	0.066	3
bin	0.068	2
bin	0.07	4
bin	0.072	2
bin	0.074	1
bin	0.076	5
bin	0.078	2
bin	0.08	2
bin	0.082	3
bin	0.084	1
bin	0.086	1
bin	0.088	2
bin	0.09	1
bin	0.092	4
bin	0.094	4
bin	0.096	5
bin	0.098	3
bin	0.1	2
bin	0.102	2
bin	0.104	0
bin	0.106	0
bin	0.108	0
bin	0.11	1
bin	0.112	2
bin	0.114	0
bin	0.116	0
bin	0.118	0
bin	0.12	0
bin	0.122	0
bin	0.124	0
bin	0.126	0
scalar EarthquakeDetector.hostS5.energyStorage residualEnergyCapacity:last -0.33298512227688
attr interpolationmode linear
attr source residualEnergyCapacityChanged
attr title "Residual energy capacity, last"
scalar EarthquakeDetector.hostS5.lo[0].lo rcvdPkFromHl:count 0
attr interpolationmode none
attr source packetReceivedFromUpper
attr title "packets received from higher layer, count"
scalar EarthquakeDetector.hostS5.lo[0].lo rcvdPkFromHl:sum(packetBytes) 0
attr interpolationmode none
attr source packetReceivedFromUpper
attr title "packets received from higher layer, sum(packetBytes)"
scalar EarthquakeDetector.hostS5.lo[0].lo passedUpPk:count 0
attr interpolationmode none
attr source packetSentToUpper
attr title "packets passed to higher layer, count"
scalar EarthquakeDetector.hostS5.lo[0].lo passedUpPk:sum(packetBytes) 0
attr interpolationmode none
attr source packetSentToUpper
attr title "packets passed to higher layer, sum(packetBytes)"
scalar EarthquakeDetector.hostS5.wlan[0].mac.queue packetPopped:count 246
attr interpolationmode none
attr title "packet popped, count"
scalar EarthquakeDetector.hostS5.wlan[0].mac.queue packetPopped:sum(packetBytes) 255622
attr interpolationmode none
attr title "packet popped, sum(packetBytes)"
statistic EarthquakeDetector.hostS5.wlan[0].mac.queue queueingTime:histogram
field count 246
field mean 0.0021041595059919
field stddev 0.0062419280518168
field min 0
field max 0.043611334256
field sum 0.517623238474
field sqrsum 0.010634769979751
attr interpolationmode none
attr source queueingTime(packetPopped)
attr title "queueing times, histogram"
attr unit s
bin	-inf	0
bin	0	209
bin	0.001	0
bin	0.002	0
bin	0.003	0
bin	0.004	0
bin	0.005	0
bin	0.006	1
bin	0.007	0
bin	0.008	23
bin	0.009	1
bin	0.01	0
bin	0.011	0
bin	0.012	0
bin	0.013	0
bin	0.014	0
bin	0.015	0
bin	0.016	0
bin	0.017	6
bin	0.018	0
bin	0.019	0
bin	0.02	0
bin	0.021	0
bin	0.022	0
bin	0.023	0
bin	0.024	0
bin	0.025	2
bin	0.026	1
bin	0.027	0
bin	0.028	0
bin	0.029	0
bin	0.03	0
bin	0.031	0
bin	0.032	0
bin	0.033	0
bin	0.034	1
bin	0.035	0
bin	0.036	0
bin	0.037	0
bin	0.038	0
bin	0.039	0
bin	0.04	0
bin	0.041	0
bin	0.042	0
bin	0.043	2
bin	0.044	0
bin	0.045	0
bin	0.046	0
bin	0.047	0
bin	0.048	0
bin	0.049	0
bin	0.05	0
bin	0.051	0
bin	0.052	0
bin	0.053	0
bin	0.054	0
bin	0.055	0
scalar EarthquakeDetector.hostS5.wlan[0].mac.queue queueLength:max 2
attr interpolationmode sample-hold
attr source "count(packetPushed) - count(packetPopped) - count(packetRemoved) - count(packetDropped)"
attr title "queue length, max"
scalar EarthquakeDetector.hostS5.wlan[0].mac.queue queueLength:timeavg 0.030341499825345
attr interpolationmode sample-hold
attr source "count(packetPushed) - count(packetPopped) - count(packetRemoved) - count(packetDropped)"
attr title "queue length, timeavg"
scalar EarthquakeDetector.hostS5.wlan[0].mac.queue packetPushed:count 246
attr interpolationmode none
attr title "packet pushed, count"
scalar EarthquakeDetector.hostS5.wlan[0].mac.queue packetPushed:sum(packetBytes) 255622
attr interpolationmode none
attr title "packet pushed, sum(packetBytes)"
scalar EarthquakeDetector.hostS5.wlan[0].mac.queue packetDropQueueOverflow:count 0
attr interpolationmode none
attr source packetDropReasonIsQueueOverflow(packetDropped)
attr title "packet drops: queue overflow, count"
scalar EarthquakeDetector.hostS5.wlan[0].mac.queue packetDropQueueOverflow:sum(packetBytes) 0
attr interpolationmode none
attr source packetDropReasonIsQueueOverflow(packetDropped)
attr title "packet drops: queue overflow, sum(packetBytes)"
scalar EarthquakeDetector.hostS5.wlan[0].mac.queue packetRemoved:count 0
attr interpolationmode none
attr title "packets removed, count"
scalar EarthquakeDetector.hostS5.wlan[0].mac.queue packetRemoved:sum(packetBytes) 0
attr interpolationmode none
attr title "packets removed, sum(packetBytes)"
scalar EarthquakeDetector.hostS5.wlan[0].mac numRetry 0
scalar EarthquakeDetector.hostS5.wlan[0].mac numSentWithoutRetry 0
scalar EarthquakeDetector.hostS5.wlan[0].mac numGivenUp 0
scalar EarthquakeDetector.hostS5.wlan[0].mac numCollision 1
scalar EarthquakeDetector.hostS5.wlan[0].mac numSent 243
scalar EarthquakeDetector.hostS5.wlan[0].mac numReceived 529
scalar EarthquakeDetector.hostS5.wlan[0].mac numSentBroadcast 3
scalar EarthquakeDetector.hostS5.wlan[0].mac numReceivedBroadcast 10
scalar EarthquakeDetector.hostS5.wlan[0].mac packetDropIncorrectlyReceived:count 1
attr interpolationmode none
attr source packetDropReasonIsIncorrectlyReceived(packetDropped)
attr title "packet drop: incorrectly received, count"
scalar EarthquakeDetector.hostS5.wlan[0].mac packetDropIncorrectlyReceived:sum(packetBytes) 1055
attr interpolationmode none
attr source packetDropReasonIsIncorrectlyReceived(packetDropped)
attr title "packet drop: incorrectly received, sum(packetBytes)"
scalar EarthquakeDetector.hostS5.wlan[0].mac packetDropNotAddressedToUs:count 890
attr interpolationmode none
attr source packetDropReasonIsNotAddressedToUs(packetDropped)
attr title "packet drop: not addressed to us, count"
scalar EarthquakeDetector.hostS5.wlan[0].mac packetDropNotAddressedToUs:sum(packetBytes) 937970
attr interpolationmode none
attr source packetDropReasonIsNotAddressedToUs(packetDropped)
attr title "packet drop: not addressed to us, sum(packetBytes)"
scalar EarthquakeDetector.hostS5.wlan[0].mac packetDropQueueOverflow:count 0
attr interpolationmode none
attr source packetDropReasonIsQueueOverflow(packetDropped)
attr title "packet drop: queue overflow, count"
scalar EarthquakeDetector.hostS5.wlan[0].mac packetDropQueueOverflow:sum(packetBytes) 0
attr interpolationmode none
attr source packetDropReasonIsQueueOverflow(packetDropped)
attr title "packet drop: queue overflow, sum(packetBytes)"
scalar EarthquakeDetector.hostS5.wlan[0].mac packetDropRetryLimitReached:count 0
attr interpolationmode none
attr source packetDropReasonIsRetryLimitReached(packetDropped)
attr title "packet drop: retry limit reached, count"
scalar EarthquakeDetector.hostS5.wlan[0].mac packetDropRetryLimitReached:sum(packetBytes) 0
attr interpolationmode none
attr source packetDropReasonIsRetryLimitReached(packetDropped)
attr title "packet drop: retry limit reached, sum(packetBytes)"
scalar EarthquakeDetector.hostS5.wlan[0].mac linkBroken:count 0
attr interpolationmode none
attr source linkBroken
attr title "link break, count"
scalar EarthquakeDetector.hostS5.wlan[0].radio radioMode:count 495
attr interpolationmode sample-hold
attr source radioModeChanged
attr title "Radio mode, count"
scalar EarthquakeDetector.hostS5.wlan[0].radio receptionState:count 3354
attr interpolationmode sample-hold
attr source receptionStateChanged
attr title "Radio reception state, count"
scalar EarthquakeDetector.hostS5.wlan[0].radio transmissionState:count 984
attr interpolationmode sample-hold
attr source transmissionStateChanged
attr title "Radio transmission state, count"
statistic EarthquakeDetector.hostS5.wlan[0].radio minSnir:histogram
field count 1430
field mean 19.809672834374
field stddev 1.1390310564038
field min 3.8329585821952
field max 30.947519702377
field sum 28327.832153155
field sqrsum 563019.05986816
attr source minimumSnir(packetSentToUpper)
attr title "Min SNIR, histogram"
bin	-inf	0
bin	0	0
bin	0.5	0
bin	1	0
bin	1.5	0
bin	2	0
bin	2.5	0
bin	3	0
bin	3.5	1
bin	4	4
bin	4.5	0
bin	5	0
bin	5.5	0
bin	6	0
bin	6.5	0
bin	7	0
bin	7.5	0
bin	8	0
bin	8.5	0
bin	9	0
bin	9.5	0
bin	10	0
bin	10.5	0
bin	11	0
bin	11.5	0
bin	12	0
bin	12.5	0
bin	13	0
bin	13.5	0
bin	14	0
bin	14.5	0
bin	15	0
bin	15.5	0
bin	16	0
bin	16.5	0
bin	17	0
bin	17.5	0
bin	18	0
bin	18.5	0
bin	19	0
bin	19.5	1420
bin	20	0
bin	20.5	0
bin	21	0
bin	21.5	0
bin	22	0
bin	22.5	0
bin	23	0
bin	23.5	0
bin	24	0
bin	24.5	0
bin	25	0
bin	25.5	0
bin	26	0
bin	26.5	0
bin	27	0
bin	27.5	0
bin	28	0
bin	28.5	0
bin	29	0
bin	29.5	0
bin	30	0
bin	30.5	5
bin	31	0
bin	31.5	0
bin	32	0
bin	32.5	0
bin	33	0
bin	33.5	0
bin	34	0
bin	34.5	0
bin	35	0
bin	35.5	0
bin	36	0
bin	36.5	0
bin	37	0
bin	37.5	0
bin	38	0
statistic EarthquakeDetector.hostS5.wlan[0].radio packetErrorRate:histogram
field count 1430
field mean 0.00026476964908163
field stddev 0.0084589643661019
field min 0
field max 0.31850789568541
field sum 0.37862059818674
field sqrsum 0.10235102491495
attr source packetErrorRate(packetSentToUpper)
attr title "Packet error rate, histogram"
bin	-inf	0
bin	0	1425
bin	0.005	0
bin	0.01	1
bin	0.015	3
bin	0.02	0
bin	0.025	0
bin	0.03	0
bin	0.035	0
bin	0.04	0
bin	0.045	0
bin	0.05	0
bin	0.055	0
bin	0.06	0
bin	0.065	0
bin	0.07	0
bin	0.075	0
bin	0.08	0
bin	0.085	0
bin	0.09	0
bin	0.095	0
bin	0.1	0
bin	0.105	0
bin	0.11	0
bin	0.115	0
bin	0.12	0
bin	0.125	0
bin	0.13	0
bin	0.135	0
bin	0.14	0
bin	0.145	0
bin	0.15	0
bin	0.155	0
bin	0.16	0
bin	0.165	0
bin	0.17	0
bin	0.175	0
bin	0.18	0
bin	0.185	0
bin	0.19	0
bin	0.195	0
bin	0.2	0
bin	0.205	0
bin	0.21	0
bin	0.215	0
bin	0.22	0
bin	0.225	0
bin	0.23	0
bin	0.235	0
bin	0.24	0
bin	0.245	0
bin	0.25	0
bin	0.255	0
bin	0.26	0
bin	0.265	0
bin	0.27	0
bin	0.275	0
bin	0.28	0
bin	0.285	0
bin	0.29	0
bin	0.295	0
bin	0.3	0
bin	0.305	0
bin	0.31	0
bin	0.315	1
bin	0.32	0
bin	0.325	0
bin	0.33	0
bin	0.335	0
bin	0.34	0
bin	0.345	0
bin	0.35	0
bin	0.355	0
bin	0.36	0
bin	0.365	0
bin	0.37	0
bin	0.375	0
bin	0.38	0
bin	0.385	0
bin	0.39	0
bin	0.395	0
bin	0.4	0
statistic EarthquakeDetector.hostS5.wlan[0].radio bitErrorRate:histogram
field count 1430
field mean 9.3096189205788e-08
field stddev 1.6643584315782e-06
field min 4.6822321405732e-29
field max 4.5091952948437e-05
field sum 0.00013312755056428
field sqrsum 3.9708508325817e-09
attr source bitErrorRate(packetSentToUpper)
attr title "Bit error rate, histogram"
bin	-inf	0
bin	0	1425
bin	1e-06	0
bin	2e-06	0
bin	3e-06	0
bin	4e-06	0
bin	5e-06	0
bin	6e-06	0
bin	7e-06	0
bin	8e-06	0
bin	9e-06	0
bin	1e-05	0
bin	1.1e-05	0
bin	1.2e-05	0
bin	1.3e-05	0
bin	1.4e-05	0
bin	1.5e-05	0
bin	1.6e-05	0
bin	1.7e-05	0
bin	1.8e-05	0
bin	1.9e-05	0
bin	2e-05	0
bin	2.1e-05	0
bin	2.2e-05	4
bin	2.3e-05	0
bin	2.4e-05	0
bin	2.5e-05	0
bin	2.6e-05	0
bin	2.7e-05	0
bin	2.8e-05	0
bin	2.9e-05	0
bin	3e-05	0
bin	3.1e-05	0
bin	3.2e-05	0
bin	3.3e-05	0
bin	3.4e-05	0
bin	3.5e-05	0
bin	3.6e-05	0
bin	3.7e-05	0
bin	3.8e-05	0
bin	3.9e-05	0
bin	4e-05	0
bin	4.1e-05	0
bin	4.2e-05	0
bin	4.3e-05	0
bin	4.4e-05	0
bin	4.5e-05	1
bin	4.6e-05	0
bin	4.7e-05	0
bin	4.8e-05	0
bin	4.9e-05	0
bin	5e-05	0
bin	5.1e-05	0
bin	5.2e-05	0
bin	5.3e-05	0
bin	5.4e-05	0
bin	5.5e-05	0
bin	5.6e-05	0
bin	5.7e-05	0
statistic EarthquakeDetector.hostS5.wlan[0].radio symbolErrorRate:histogram
field count 1430
field mean 9.3096189205788e-08
field stddev 1.6643584315782e-06
field min 4.6822321405732e-29
field max 4.5091952948437e-05
field sum 0.00013312755056428
field sqrsum 3.9708508325817e-09
attr source symbolErrorRate(packetSentToUpper)
attr title "Symbol error rate, histogram"
bin	-inf	0
bin	0	1425
bin	1e-06	0
bin	2e-06	0
bin	3e-06	0
bin	4e-06	0
bin	5e-06	0
bin	6e-06	0
bin	7e-06	0
bin	8e-06	0
bin	9e-06	0
bin	1e-05	0
bin	1.1e-05	0
bin	1.2e-05	0
bin	1.3e-05	0
bin	1.4e-05	0
bin	1.5e-05	0
bin	1.6e-05	0
bin	1.7e-05	0
bin	1.8e-05	0
bin	1.9e-05	0
bin	2e-05	0
bin	2.1e-05	0
bin	2.2e-05	4
bin	2.3e-05	0
bin	2.4e-05	0
bin	2.5e-05	0
bin	2.6e-05	0
bin	2.7e-05	0
bin	2.8e-05	0
bin	2.9e-05	0
bin	3e-05	0
bin	3.1e-05	0
bin	3.2e-05	0
bin	3.3e-05	0
bin	3.4e-05	0
bin	3.5e-05	0
bin	3.6e-05	0
bin	3.7e-05	0
bin	3.8e-05	0
bin	3.9e-05	0
bin	4e-05	0
bin	4.1e-05	0
bin	4.2e-05	0
bin	4.3e-05	0
bin	4.4e-05	0
bin	4.5e-05	1
bin	4.6e-05	0
bin	4.7e-05	0
bin	4.8e-05	0
bin	4.9e-05	0
bin	5e-05	0
bin	5.1e-05	0
bin	5.2e-05	0
bin	5.3e-05	0
bin	5.4e-05	0
bin	5.5e-05	0
bin	5.6e-05	0
bin	5.7e-05	0
scalar EarthquakeDetector.hostS5.ipv4.ip packetDropAddressResolutionFailed:count 0
attr interpolationmode none
attr source packetDropReasonIsAddressResolutionFailed(packetDropped)
attr title "packet drop: address resolution failed, count"
scalar EarthquakeDetector.hostS5.ipv4.ip packetDropAddressResolutionFailed:sum(packetBytes) 0
attr interpolationmode none
attr source packetDropReasonIsAddressResolutionFailed(packetDropped)
attr title "packet drop: address resolution failed, sum(packetBytes)"
scalar EarthquakeDetector.hostS5.ipv4.ip packetDropHopLimitReached:count 0
attr interpolationmode none
attr source packetDropReasonIsHopLimitReached(packetDropped)
attr title "packet drop: hop limit reached, count"
scalar EarthquakeDetector.hostS5.ipv4.ip packetDropHopLimitReached:sum(packetBytes) 0
attr interpolationmode none
attr source packetDropReasonIsHopLimitReached(packetDropped)
attr title "packet drop: hop limit reached, sum(packetBytes)"
scalar EarthquakeDetector.hostS5.ipv4.ip packetDropForwardingDisabled:count 0
attr interpolationmode none
attr source packetDropReasonIsForwardingDisabled(packetDropped)
attr title "packet drop: forwarding disabled, count"
scalar EarthquakeDetector.hostS5.ipv4.ip packetDropForwardingDisabled:sum(packetBytes) 0
attr interpolationmode none
attr source packetDropReasonIsForwardingDisabled(packetDropped)
attr title "packet drop: forwarding disabled, sum(packetBytes)"
scalar EarthquakeDetector.hostS5.ipv4.ip packetDropNoInterfaceFound:count 0
attr interpolationmode none
attr source packetDropReasonIsNoInterfaceFound(packetDropped)
attr title "packet drop: no interface found, count"
scalar EarthquakeDetector.hostS5.ipv4.ip packetDropNoInterfaceFound:sum(packetBytes) 0
attr interpolationmode none
attr source packetDropReasonIsNoInterfaceFound(packetDropped)
attr title "packet drop: no interface found, sum(packetBytes)"
scalar EarthquakeDetector.hostS5.ipv4.ip packetDropNoRouteFound:count 0
attr interpolationmode none
attr source packetDropReasonIsNoRouteFound(packetDropped)
attr title "packet drop: no route found, count"
scalar EarthquakeDetector.hostS5.ipv4.ip packetDropNoRouteFound:sum(packetBytes) 0
attr interpolationmode none
attr source packetDropReasonIsNoRouteFound(packetDropped)
attr title "packet drop: no route found, sum(packetBytes)"
scalar EarthquakeDetector.hostS5.ipv4.ip packetDropUndefined:count 0
attr interpolationmode none
attr source packetDropReasonIsUndefined(packetDropped)
attr title "packet drop: undefined, count"
scalar EarthquakeDetector.hostS5.ipv4.ip packetDropUndefined:sum(packetBytes) 0
attr interpolationmode none
attr source packetDropReasonIsUndefined(packetDropped)
attr title "packet drop: undefined, sum(packetBytes)"
scalar EarthquakeDetector.hostS5.udp packetReceived:count 297
attr interpolationmode none
attr source packetReceived
attr title "packets received, count"
scalar EarthquakeDetector.hostS5.udp packetReceived:sum(packetBytes) 288636
attr interpolationmode none
attr source packetReceived
attr title "packets received, sum(packetBytes)"
scalar EarthquakeDetector.hostS5.udp packetSent:count 4
attr interpolationmode none
attr source packetSent
attr title "packets sent, count"
scalar EarthquakeDetector.hostS5.udp packetSent:sum(packetBytes) 124
attr interpolationmode none
attr source packetSent
attr title "packets sent, sum(packetBytes)"
scalar EarthquakeDetector.hostS5.udp passedUpPk:count 297
attr interpolationmode none
attr source packetSentToUpper
attr title "packets passed up, count"
scalar EarthquakeDetector.hostS5.udp droppedPkWrongPort:count 0
attr interpolationmode none
attr source packetDropReasonIsNoPortFound(packetDropped)
attr title "packets dropped (wrong port), count"
scalar EarthquakeDetector.hostS5.udp droppedPkBadChecksum:count 0
attr interpolationmode none
attr source packetDropReasonIsIncorrectlyReceived(packetDropped)
attr title "packets dropped (checksum error), count"
scalar EarthquakeDetector.hostS5.app[0] packetReceived:count 286
attr interpolationmode none
attr source packetReceived
attr title "packets received, count"
scalar EarthquakeDetector.hostS5.app[0] packetReceived:sum(packetBytes) 286000
attr interpolationmode none
attr source packetReceived
attr title "packets received, sum(packetBytes)"
statistic EarthquakeDetector.hostS5.app[0] endToEndDelay:histogram
field count 286
field mean 0.037150040919451
field stddev 0.027322150114832
field min 0.008554667128
field max 0.117328095734
field sum 10.624911702963
field sqrsum 0.60746837229639
attr interpolationmode none
attr source dataAge(packetReceived)
attr title "end-to-end delay, histogram"
attr unit s
bin	-inf	0
bin	0	0
bin	0.002	0
bin	0.004	0
bin	0.006	0
bin	0.008	57
bin	0.01	8
bin	0.012	10
bin	0.014	13
bin	0.016	7
bin	0.018	7
bin	0.02	8
bin	0.022	8
bin	0.024	10
bin	0.026	5
bin	0.028	8
bin	0.03	6
bin	0.032	12
bin	0.034	9
bin	0.036	7
bin	0.038	4
bin	0.04	7
bin	0.042	5
bin	0.044	9
bin	0.046	1
bin	0.048	8
bin	0.05	3
bin	0.052	2
bin	0.054	4
bin	0.056	6
bin	0.058	3
bin	0.06	3
bin	0.062	3
bin	0.064	5
bin	0.066	5
bin	0.068	2
bin	0.07	0
bin	0.072	3
bin	0.074	5
bin	0.076	3
bin	0.078	2
bin	0.08	1
bin	0.082	1
bin	0.084	1
bin	0.086	3
bin	0.088	4
bin	0.09	2
bin	0.092	0
bin	0.094	2
bin	0.096	5
bin	0.098	2
bin	0.1	2
bin	0.102	1
bin	0.104	2
bin	0.106	0
bin	0.108	1
bin	0.11	0
bin	0.112	0
bin	0.114	0
bin	0.116	1
bin	0.118	0
bin	0.12	0
bin	0.122	0
bin	0.124	0
bin	0.126	0
bin	0.128	0
bin	0.13	0

